688211
  -OEChem-10112310443D

 45 47  0     1  0  0  0  0  0999 V2000
    2.2057   -1.2517   -0.1568 O   0  0  0  0  0  0  0  0  0  0  0  0
   -2.2013   -1.2492    0.1655 O   0  0  0  0  0  0  0  0  0  0  0  0
    3.5896    0.5653   -0.2819 N   0  0  0  0  0  0  0  0  0  0  0  0
   -3.5882    0.5662    0.2807 N   0  0  0  0  0  0  0  0  0  0  0  0
   -0.0029    0.1710    0.0042 N   0  0  0  0  0  0  0  0  0  0  0  0
    4.4169   -0.6423   -0.4394 C   0  0  1  0  0  0  0  0  0  0  0  0
   -4.4142   -0.6421    0.4392 C   0  0  1  0  0  0  0  0  0  0  0  0
    5.6787   -0.5291    0.3949 C   0  0  0  0  0  0  0  0  0  0  0  0
   -5.6735   -0.5332   -0.3995 C   0  0  0  0  0  0  0  0  0  0  0  0
    3.5154   -1.7816   -0.0088 C   0  0  0  0  0  0  0  0  0  0  0  0
   -3.5096   -1.7813    0.0150 C   0  0  0  0  0  0  0  0  0  0  0  0
    6.4863   -1.8232    0.3253 C   0  0  0  0  0  0  0  0  0  0  0  0
    6.5234    0.6564   -0.0671 C   0  0  0  0  0  0  0  0  0  0  0  0
   -6.4873   -1.8276   -0.3340 C   0  0  0  0  0  0  0  0  0  0  0  0
   -6.5293    0.6531    0.0509 C   0  0  0  0  0  0  0  0  0  0  0  0
    2.3871    0.0909   -0.1848 C   0  0  0  0  0  0  0  0  0  0  0  0
   -2.3847    0.0932    0.1890 C   0  0  0  0  0  0  0  0  0  0  0  0
    1.1503    0.8792   -0.0870 C   0  0  0  0  0  0  0  0  0  0  0  0
   -1.1488    0.8831    0.0927 C   0  0  0  0  0  0  0  0  0  0  0  0
    1.1945    2.2690   -0.0927 C   0  0  0  0  0  0  0  0  0  0  0  0
   -1.2034    2.2677    0.0948 C   0  0  0  0  0  0  0  0  0  0  0  0
   -0.0050    2.9664   -0.0001 C   0  0  0  0  0  0  0  0  0  0  0  0
    4.6673   -0.7475   -1.5035 H   0  0  0  0  0  0  0  0  0  0  0  0
   -4.6688   -0.7443    1.5026 H   0  0  0  0  0  0  0  0  0  0  0  0
    5.4109   -0.3514    1.4450 H   0  0  0  0  0  0  0  0  0  0  0  0
   -5.4008   -0.3582   -1.4490 H   0  0  0  0  0  0  0  0  0  0  0  0
    3.6345   -2.6640   -0.6448 H   0  0  0  0  0  0  0  0  0  0  0  0
    3.6448   -2.0767    1.0381 H   0  0  0  0  0  0  0  0  0  0  0  0
   -3.6295   -2.6619    0.6533 H   0  0  0  0  0  0  0  0  0  0  0  0
   -3.6357   -2.0799   -1.0314 H   0  0  0  0  0  0  0  0  0  0  0  0
    6.7454   -2.0752   -0.7089 H   0  0  0  0  0  0  0  0  0  0  0  0
    7.4209   -1.7246    0.8885 H   0  0  0  0  0  0  0  0  0  0  0  0
    5.9408   -2.6690    0.7548 H   0  0  0  0  0  0  0  0  0  0  0  0
    6.8080    0.5567   -1.1203 H   0  0  0  0  0  0  0  0  0  0  0  0
    7.4438    0.7280    0.5226 H   0  0  0  0  0  0  0  0  0  0  0  0
    5.9872    1.6035    0.0519 H   0  0  0  0  0  0  0  0  0  0  0  0
   -6.7561   -2.0749    0.6989 H   0  0  0  0  0  0  0  0  0  0  0  0
   -7.4159   -1.7284   -0.9068 H   0  0  0  0  0  0  0  0  0  0  0  0
   -5.9383   -2.6753   -0.7551 H   0  0  0  0  0  0  0  0  0  0  0  0
   -6.8229    0.5548    1.1017 H   0  0  0  0  0  0  0  0  0  0  0  0
   -7.4439    0.7194   -0.5483 H   0  0  0  0  0  0  0  0  0  0  0  0
   -5.9940    1.6009   -0.0656 H   0  0  0  0  0  0  0  0  0  0  0  0
    2.1293    2.8148   -0.1670 H   0  0  0  0  0  0  0  0  0  0  0  0
   -2.1393    2.8111    0.1667 H   0  0  0  0  0  0  0  0  0  0  0  0
   -0.0057    4.0522   -0.0021 H   0  0  0  0  0  0  0  0  0  0  0  0
  1 10  1  0  0  0  0
  1 16  1  0  0  0  0
  2 11  1  0  0  0  0
  2 17  1  0  0  0  0
  3  6  1  0  0  0  0
  3 16  2  0  0  0  0
  4  7  1  0  0  0  0
  4 17  2  0  0  0  0
  5 18  2  0  0  0  0
  5 19  1  0  0  0  0
  6  8  1  0  0  0  0
  6 10  1  0  0  0  0
  6 23  1  0  0  0  0
  7  9  1  0  0  0  0
  7 11  1  0  0  0  0
  7 24  1  0  0  0  0
  8 12  1  0  0  0  0
  8 13  1  0  0  0  0
  8 25  1  0  0  0  0
  9 14  1  0  0  0  0
  9 15  1  0  0  0  0
  9 26  1  0  0  0  0
 10 27  1  0  0  0  0
 10 28  1  0  0  0  0
 11 29  1  0  0  0  0
 11 30  1  0  0  0  0
 12 31  1  0  0  0  0
 12 32  1  0  0  0  0
 12 33  1  0  0  0  0
 13 34  1  0  0  0  0
 13 35  1  0  0  0  0
 13 36  1  0  0  0  0
 14 37  1  0  0  0  0
 14 38  1  0  0  0  0
 14 39  1  0  0  0  0
 15 40  1  0  0  0  0
 15 41  1  0  0  0  0
 15 42  1  0  0  0  0
 16 18  1  0  0  0  0
 17 19  1  0  0  0  0
 18 20  1  0  0  0  0
 19 21  2  0  0  0  0
 20 22  2  0  0  0  0
 20 43  1  0  0  0  0
 21 22  1  0  0  0  0
 21 44  1  0  0  0  0
 22 45  1  0  0  0  0
M  END
> <PUBCHEM_COMPOUND_CID>
688211

> <PUBCHEM_CONFORMER_RMSD>
0.8

> <PUBCHEM_CONFORMER_DIVERSEORDER>
1
20
6
7
10
23
2
8
16
18
13
17
9
3
22
4
11
14
21
15
5
12
19

> <PUBCHEM_MMFF94_PARTIAL_CHARGES>
19
1 -0.43
10 0.28
11 0.28
16 0.51
17 0.51
18 0.4
19 0.4
2 -0.43
20 -0.15
21 -0.15
22 -0.15
3 -0.7
4 -0.7
43 0.15
44 0.15
45 0.15
5 -0.62
6 0.25
7 0.25

> <PUBCHEM_EFFECTIVE_ROTOR_COUNT>
5.2

> <PUBCHEM_PHARMACOPHORE_FEATURES>
6
1 5 acceptor
3 8 12 13 hydrophobe
3 9 14 15 hydrophobe
5 1 3 6 10 16 rings
5 2 4 7 11 17 rings
6 5 18 19 20 21 22 rings

> <PUBCHEM_HEAVY_ATOM_COUNT>
22

> <PUBCHEM_ATOM_DEF_STEREO_COUNT>
2

> <PUBCHEM_ATOM_UDEF_STEREO_COUNT>
0

> <PUBCHEM_BOND_DEF_STEREO_COUNT>
0

> <PUBCHEM_BOND_UDEF_STEREO_COUNT>
0

> <PUBCHEM_ISOTOPIC_ATOM_COUNT>
0

> <PUBCHEM_COMPONENT_COUNT>
1

> <PUBCHEM_CACTVS_TAUTO_COUNT>
1

> <PUBCHEM_CONFORMER_ID>
000A805300000001

> <PUBCHEM_MMFF94_ENERGY>
50.9245

> <PUBCHEM_FEATURE_SELFOVERLAP>
30.446

> <PUBCHEM_SHAPE_FINGERPRINT>
10354089 29 13039185905698330258
10447042 23 18335133185762159646
106641 1 16200144430448939202
10906281 52 18266481886819785058
10968037 39 18410013247407004127
11265709 11 18410575080421294433
11315181 36 18131636699069494969
11796584 16 16950565514689850562
11963148 33 18412258437457107606
12166972 35 17749111084712280396
12236239 1 18410576184174732679
12516196 113 18343301478629042480
12596602 18 17131838650776293866
12623949 98 17560252314763941654
12760667 363 18409449163597988955
12788726 201 18261670363976147817
12838862 33 18338498803222601986
12841375 25 18409730672639363629
13288520 33 18411138026485599053
13685833 64 18408888464418537875
13862211 1 18410575084668626498
14251752 14 17603577492065767157
14251764 18 18343305877408588267
1454969 45 18412829118672219668
15099037 51 18408886252737155671
15183329 4 16660637445377089407
15352361 1 18410576188506727171
15527383 91 18131348630954273624
15927050 60 17622725736588814468
16087824 20 18265052424139163117
17492 89 18122059806948112434
17857418 61 18411139138423095307
18006028 8 18342736316989146197
18222031 100 18130516291840449780
18335252 114 8718555977703463859
19141452 34 18273214227051180575
200 152 18333449829032983908
20028762 73 18272931635183188782
20238998 120 18412543210546552152
20374829 77 18409166619206024595
20645477 70 18263923401188650533
20832881 197 18335422378821403665
21236236 1 18340487756024258057
21267235 1 18410581681732904035
21792934 111 18341038649503294040
22079108 93 15482663585743370142
22224240 67 16702014284233853582
23198884 109 15213300811817720845
23402539 116 18411134714659554086
23522609 53 18122658073621361449
23559900 14 18339073912671816625
23622692 88 15697996353267850913
25147074 1 18338816562083847753
2871803 45 18261394425412643658
3004659 81 18040997349673735286
3009799 131 17822008718197061456
314173 85 18271537428457542937
335352 9 18410573990454130317
3421961 26 18340768251115305761
347723 3 16660362580028097233
34797466 226 16845299375780976996
4073 2 17969225710284825634
4325135 7 18335424582561554684
4340502 62 14908184149087585316
4463277 17 18410575084663384225
46194498 28 17458904967580066429
465052 167 18271812353778101575
5104073 3 18129673031706077763
5283173 99 18042114384483963948
5486654 2 18409736188221150278
559249 180 18413106169943644823
59682541 35 18272361019456007418
59682541 52 13768192858226297074
59755656 215 18335423422535970686
6138700 20 18408885118686818243
77188 2 18411419539701329805
8863177 126 17824840072798702987

> <PUBCHEM_SHAPE_MULTIPOLES>
426.07
17.06
2.46
0.65
0.01
1.1
0
-9.43
-0.05
-0.01
0
0
-0.03
-0.42

> <PUBCHEM_SHAPE_SELFOVERLAP>
903.24

> <PUBCHEM_SHAPE_VOLUME>
239.9

> <PUBCHEM_COORDINATE_TYPE>
2
5
10

$$$$
2734215
  -OEChem-10112310443D

 48 49  0     0  0  0  0  0  0999 V2000
   -1.0014    0.7378    0.6360 P   0  0  0  0  0  0  0  0  0  0  0  0
   -2.8690    0.5022    0.6890 C   0  0  0  0  0  0  0  0  0  0  0  0
   -0.9125    1.6192   -0.9650 C   0  0  0  0  0  0  0  0  0  0  0  0
   -0.4370   -0.9416    0.2259 C   0  0  0  0  0  0  0  0  0  0  0  0
   -3.2099   -0.5386    1.7653 C   0  0  0  0  0  0  0  0  0  0  0  0
   -3.5311    1.8438    1.0344 C   0  0  0  0  0  0  0  0  0  0  0  0
   -3.3635    0.0153   -0.6806 C   0  0  0  0  0  0  0  0  0  0  0  0
   -1.1567    0.6154   -2.1009 C   0  0  0  0  0  0  0  0  0  0  0  0
   -1.9923    2.7104   -0.9939 C   0  0  0  0  0  0  0  0  0  0  0  0
    0.4754    2.2563   -1.1232 C   0  0  0  0  0  0  0  0  0  0  0  0
    0.9151   -1.2829    0.0719 C   0  0  0  0  0  0  0  0  0  0  0  0
   -1.4110   -1.9355    0.0576 C   0  0  0  0  0  0  0  0  0  0  0  0
    1.9761   -0.3045    0.2312 C   0  0  0  0  0  0  0  0  0  0  0  0
    1.2838   -2.5905   -0.2440 C   0  0  0  0  0  0  0  0  0  0  0  0
   -1.0422   -3.2431   -0.2583 C   0  0  0  0  0  0  0  0  0  0  0  0
    0.3052   -3.5707   -0.4091 C   0  0  0  0  0  0  0  0  0  0  0  0
    3.1599   -0.4434   -0.4883 C   0  0  0  0  0  0  0  0  0  0  0  0
    1.8030    0.7684    1.1014 C   0  0  0  0  0  0  0  0  0  0  0  0
    4.1781    0.4978   -0.3366 C   0  0  0  0  0  0  0  0  0  0  0  0
    2.8213    1.7095    1.2531 C   0  0  0  0  0  0  0  0  0  0  0  0
    4.0088    1.5743    0.5341 C   0  0  0  0  0  0  0  0  0  0  0  0
   -3.4859   -0.0212    2.6965 H   0  0  0  0  0  0  0  0  0  0  0  0
   -4.0904   -1.1437    1.5192 H   0  0  0  0  0  0  0  0  0  0  0  0
   -2.4104   -1.1960    2.1180 H   0  0  0  0  0  0  0  0  0  0  0  0
   -4.0289    2.3741    0.2217 H   0  0  0  0  0  0  0  0  0  0  0  0
   -2.8976    2.5213    1.6180 H   0  0  0  0  0  0  0  0  0  0  0  0
   -4.3898    1.6519    1.6962 H   0  0  0  0  0  0  0  0  0  0  0  0
   -2.8391   -0.7138   -1.2864 H   0  0  0  0  0  0  0  0  0  0  0  0
   -4.3183   -0.5071   -0.4962 H   0  0  0  0  0  0  0  0  0  0  0  0
   -3.7418    0.7942   -1.3417 H   0  0  0  0  0  0  0  0  0  0  0  0
   -0.8492   -0.4225   -2.0103 H   0  0  0  0  0  0  0  0  0  0  0  0
   -2.1312    0.6930   -2.5904 H   0  0  0  0  0  0  0  0  0  0  0  0
   -0.5211    0.9442   -2.9415 H   0  0  0  0  0  0  0  0  0  0  0  0
   -2.0044    3.3478   -0.1050 H   0  0  0  0  0  0  0  0  0  0  0  0
   -2.9743    2.4653   -1.3781 H   0  0  0  0  0  0  0  0  0  0  0  0
   -1.6838    3.4285   -1.7728 H   0  0  0  0  0  0  0  0  0  0  0  0
    1.2535    1.5365   -1.3724 H   0  0  0  0  0  0  0  0  0  0  0  0
    0.4728    2.9452   -1.9794 H   0  0  0  0  0  0  0  0  0  0  0  0
    0.7586    2.8675   -0.2608 H   0  0  0  0  0  0  0  0  0  0  0  0
   -2.4743   -1.8929    0.1726 H   0  0  0  0  0  0  0  0  0  0  0  0
    2.3177   -2.9117   -0.3330 H   0  0  0  0  0  0  0  0  0  0  0  0
   -1.8003   -4.0124   -0.3768 H   0  0  0  0  0  0  0  0  0  0  0  0
    0.5922   -4.5916   -0.6438 H   0  0  0  0  0  0  0  0  0  0  0  0
    3.3263   -1.2396   -1.2081 H   0  0  0  0  0  0  0  0  0  0  0  0
    1.0582    0.8066    1.8874 H   0  0  0  0  0  0  0  0  0  0  0  0
    5.1006    0.3966   -0.9009 H   0  0  0  0  0  0  0  0  0  0  0  0
    2.7152    2.5153    1.9740 H   0  0  0  0  0  0  0  0  0  0  0  0
    4.8062    2.3007    0.6609 H   0  0  0  0  0  0  0  0  0  0  0  0
  1  2  1  0  0  0  0
  1  3  1  0  0  0  0
  1  4  1  0  0  0  0
  2  5  1  0  0  0  0
  2  6  1  0  0  0  0
  2  7  1  0  0  0  0
  3  8  1  0  0  0  0
  3  9  1  0  0  0  0
  3 10  1  0  0  0  0
  4 11  1  0  0  0  0
  4 12  2  0  0  0  0
  5 22  1  0  0  0  0
  5 23  1  0  0  0  0
  5 24  1  0  0  0  0
  6 25  1  0  0  0  0
  6 26  1  0  0  0  0
  6 27  1  0  0  0  0
  7 28  1  0  0  0  0
  7 29  1  0  0  0  0
  7 30  1  0  0  0  0
  8 31  1  0  0  0  0
  8 32  1  0  0  0  0
  8 33  1  0  0  0  0
  9 34  1  0  0  0  0
  9 35  1  0  0  0  0
  9 36  1  0  0  0  0
 10 37  1  0  0  0  0
 10 38  1  0  0  0  0
 10 39  1  0  0  0  0
 11 13  1  0  0  0  0
 11 14  2  0  0  0  0
 12 15  1  0  0  0  0
 12 40  1  0  0  0  0
 13 17  2  0  0  0  0
 13 18  1  0  0  0  0
 14 16  1  0  0  0  0
 14 41  1  0  0  0  0
 15 16  2  0  0  0  0
 15 42  1  0  0  0  0
 16 43  1  0  0  0  0
 17 19  1  0  0  0  0
 17 44  1  0  0  0  0
 18 20  2  0  0  0  0
 18 45  1  0  0  0  0
 19 21  2  0  0  0  0
 19 46  1  0  0  0  0
 20 21  1  0  0  0  0
 20 47  1  0  0  0  0
 21 48  1  0  0  0  0
M  END
> <PUBCHEM_COMPOUND_CID>
2734215

> <PUBCHEM_CONFORMER_RMSD>
0.6

> <PUBCHEM_CONFORMER_DIVERSEORDER>
1
2

> <PUBCHEM_MMFF94_PARTIAL_CHARGES>
22
1 -0.35
12 -0.15
14 -0.15
15 -0.15
16 -0.15
17 -0.15
18 -0.15
19 -0.15
2 0.17
20 -0.15
21 -0.15
3 0.17
4 0.01
40 0.15
41 0.15
42 0.15
43 0.15
44 0.15
45 0.15
46 0.15
47 0.15
48 0.15

> <PUBCHEM_EFFECTIVE_ROTOR_COUNT>
4

> <PUBCHEM_PHARMACOPHORE_FEATURES>
4
4 2 5 6 7 hydrophobe
4 3 8 9 10 hydrophobe
6 13 17 18 19 20 21 rings
6 4 11 12 14 15 16 rings

> <PUBCHEM_HEAVY_ATOM_COUNT>
21

> <PUBCHEM_ATOM_DEF_STEREO_COUNT>
0

> <PUBCHEM_ATOM_UDEF_STEREO_COUNT>
0

> <PUBCHEM_BOND_DEF_STEREO_COUNT>
0

> <PUBCHEM_BOND_UDEF_STEREO_COUNT>
0

> <PUBCHEM_ISOTOPIC_ATOM_COUNT>
0

> <PUBCHEM_COMPONENT_COUNT>
1

> <PUBCHEM_CACTVS_TAUTO_COUNT>
1

> <PUBCHEM_CONFORMER_ID>
0029B88700000001

> <PUBCHEM_MMFF94_ENERGY>
178.1332

> <PUBCHEM_FEATURE_SELFOVERLAP>
20.297

> <PUBCHEM_SHAPE_FINGERPRINT>
10064457 181 18271820050195790296
10165383 225 18340220608688954488
10493431 412 18341338876211929049
10498660 4 18335127743616375172
10863032 1 15841559552141297149
10906281 52 17968105179519944301
10948715 1 18131918147727833773
11132069 177 18335416928217767344
11322862 65 18341615970564733678
11370993 70 18343018904161777465
12011746 2 18408040710625026981
12173636 292 18343299309781438232
12403814 3 18187359965102102376
12633257 1 18272368719868320736
12969540 114 18190438567922074301
13140716 1 18119254114522552793
14142880 1 18268699691972623274
14223421 5 18191311481111706707
14386348 128 18411418393218341992
14787075 74 17845652672375752289
14790565 3 18338252508540167780
15209289 33 18272935986131803718
15309172 13 18409728465068079265
16945 1 18335704965862139365
17357779 13 17694760210063479279
17492 54 17826477176549820519
18186145 218 18201436952638427304
18219364 16 18412262817979714696
18981168 100 18198039426974295488
19591789 44 18411422769816643682
20261772 1 18262808495907417136
20510252 161 17984419917018949722
20600515 1 17040868589167819826
21041028 32 17334217823391137610
21160774 45 18264475338265572559
21330990 113 18336842917241460200
21524375 3 18409726244834173202
22112679 90 17829337122035976260
22182313 1 17607535635616857789
22802520 49 17685217170751783173
2334 1 17831583449876592998
23419403 2 17684653126162171349
23493267 7 17531246093546318504
23557571 272 17981046633183788596
23559900 14 17826522067457982661
238 59 17978481188423597487
25 1 18201721713233269522
2748010 2 18117275852607055733
31174 14 17906742405850810755
3380486 77 17106734794923299122
350125 39 18337672992997397914
3524813 1 18339089193985724274
3729539 64 17909578094016613438
458136 41 18268160776703767170
495365 180 18052234233898097369
633830 44 17917154900861268112
6442390 28 18412550915680022427
6992083 37 18119534490024506779
70251023 43 17764568942678121487
7364860 26 18052823541801875250
81228 2 17977373168713975794
8272917 22 17913500043075394465
9925002 15 17833279996529462431

> <PUBCHEM_SHAPE_MULTIPOLES>
436.02
6.02
3.59
1.42
2.64
2.67
0.13
-3.16
-1.56
-0.46
0.73
-0.72
-0.64
0.63

> <PUBCHEM_SHAPE_SELFOVERLAP>
906.715

> <PUBCHEM_SHAPE_VOLUME>
248.8

> <PUBCHEM_COORDINATE_TYPE>
2
5
10

$$$$
11155794
  -OEChem-10112310443D

 83 86  0     0  0  0  0  0  0999 V2000
   -1.2204   -0.0069   -0.5221 P   0  0  0  0  0  0  0  0  0  0  0  0
   -1.8373   -1.7480   -0.2961 C   0  0  0  0  0  0  0  0  0  0  0  0
   -2.8670    0.8385   -0.7143 C   0  0  0  0  0  0  0  0  0  0  0  0
   -2.9845   -1.8157    0.7142 C   0  0  0  0  0  0  0  0  0  0  0  0
   -2.2464   -2.3660   -1.6447 C   0  0  0  0  0  0  0  0  0  0  0  0
   -2.7542    2.3511   -0.5120 C   0  0  0  0  0  0  0  0  0  0  0  0
   -3.5009    0.5051   -2.0762 C   0  0  0  0  0  0  0  0  0  0  0  0
   -3.3998   -3.2622    1.0012 C   0  0  0  0  0  0  0  0  0  0  0  0
   -3.2679   -3.5005   -1.5102 C   0  0  0  0  0  0  0  0  0  0  0  0
   -4.1284    3.0281   -0.5352 C   0  0  0  0  0  0  0  0  0  0  0  0
   -4.5043    1.5595   -2.5558 C   0  0  0  0  0  0  0  0  0  0  0  0
   -3.1570   -4.2143   -0.1709 C   0  0  0  0  0  0  0  0  0  0  0  0
   -5.1587    2.2957   -1.3959 C   0  0  0  0  0  0  0  0  0  0  0  0
   -0.7340    0.4832    1.1648 C   0  0  0  0  0  0  0  0  0  0  0  0
    0.6004    0.6335    1.5634 C   0  0  0  0  0  0  0  0  0  0  0  0
   -1.7554    0.7168    2.0929 C   0  0  0  0  0  0  0  0  0  0  0  0
    1.7070    0.4067    0.6510 C   0  0  0  0  0  0  0  0  0  0  0  0
    0.9074    1.0118    2.8705 C   0  0  0  0  0  0  0  0  0  0  0  0
    2.2057    1.4598   -0.1159 C   0  0  0  0  0  0  0  0  0  0  0  0
    2.2714   -0.8643    0.5412 C   0  0  0  0  0  0  0  0  0  0  0  0
   -1.4484    1.0952    3.3999 C   0  0  0  0  0  0  0  0  0  0  0  0
   -0.1171    1.2426    3.7887 C   0  0  0  0  0  0  0  0  0  0  0  0
    1.6288    2.8367   -0.0275 C   0  0  0  0  0  0  0  0  0  0  0  0
    1.7658   -2.0193    1.3455 C   0  0  0  0  0  0  0  0  0  0  0  0
    3.2690    1.2418   -0.9923 C   0  0  0  0  0  0  0  0  0  0  0  0
    3.3344   -1.0821   -0.3353 C   0  0  0  0  0  0  0  0  0  0  0  0
    3.8332   -0.0291   -1.1021 C   0  0  0  0  0  0  0  0  0  0  0  0
    4.9695   -0.2621   -2.0395 C   0  0  0  0  0  0  0  0  0  0  0  0
    2.6534    3.8691    0.4749 C   0  0  0  0  0  0  0  0  0  0  0  0
    1.0230    3.3037   -1.3628 C   0  0  0  0  0  0  0  0  0  0  0  0
    1.2045   -3.1467    0.4611 C   0  0  0  0  0  0  0  0  0  0  0  0
    2.8356   -2.5813    2.2982 C   0  0  0  0  0  0  0  0  0  0  0  0
    4.6206   -1.2731   -3.1480 C   0  0  0  0  0  0  0  0  0  0  0  0
    6.2518   -0.7075   -1.3112 C   0  0  0  0  0  0  0  0  0  0  0  0
   -1.0362   -2.3333    0.1322 H   0  0  0  0  0  0  0  0  0  0  0  0
   -3.5857    0.5218    0.0383 H   0  0  0  0  0  0  0  0  0  0  0  0
   -2.7405   -1.4089    1.6909 H   0  0  0  0  0  0  0  0  0  0  0  0
   -3.8918   -1.3309    0.3471 H   0  0  0  0  0  0  0  0  0  0  0  0
   -2.5566   -1.6910   -2.4355 H   0  0  0  0  0  0  0  0  0  0  0  0
   -1.3294   -2.8118   -2.0606 H   0  0  0  0  0  0  0  0  0  0  0  0
   -2.2447    2.6491    0.4083 H   0  0  0  0  0  0  0  0  0  0  0  0
   -2.1497    2.7758   -1.3258 H   0  0  0  0  0  0  0  0  0  0  0  0
   -2.7536    0.3817   -2.8692 H   0  0  0  0  0  0  0  0  0  0  0  0
   -4.0658   -0.4290   -1.9848 H   0  0  0  0  0  0  0  0  0  0  0  0
   -2.8533   -3.6410    1.8740 H   0  0  0  0  0  0  0  0  0  0  0  0
   -4.4613   -3.2788    1.2785 H   0  0  0  0  0  0  0  0  0  0  0  0
   -4.2790   -3.0874   -1.6137 H   0  0  0  0  0  0  0  0  0  0  0  0
   -3.1349   -4.2146   -2.3309 H   0  0  0  0  0  0  0  0  0  0  0  0
   -4.5191    3.1076    0.4866 H   0  0  0  0  0  0  0  0  0  0  0  0
   -4.0068    4.0564   -0.8970 H   0  0  0  0  0  0  0  0  0  0  0  0
   -3.9858    2.2873   -3.1930 H   0  0  0  0  0  0  0  0  0  0  0  0
   -5.2668    1.0851   -3.1841 H   0  0  0  0  0  0  0  0  0  0  0  0
   -2.1564   -4.6557   -0.0802 H   0  0  0  0  0  0  0  0  0  0  0  0
   -3.8694   -5.0457   -0.1226 H   0  0  0  0  0  0  0  0  0  0  0  0
   -5.7075    1.5758   -0.7756 H   0  0  0  0  0  0  0  0  0  0  0  0
   -5.8997    3.0114   -1.7696 H   0  0  0  0  0  0  0  0  0  0  0  0
   -2.8137    0.6593    1.8743 H   0  0  0  0  0  0  0  0  0  0  0  0
    1.9391    1.1326    3.1933 H   0  0  0  0  0  0  0  0  0  0  0  0
   -2.2452    1.2824    4.1139 H   0  0  0  0  0  0  0  0  0  0  0  0
    0.1219    1.5388    4.8058 H   0  0  0  0  0  0  0  0  0  0  0  0
    0.8036    2.8833    0.6889 H   0  0  0  0  0  0  0  0  0  0  0  0
    0.9330   -1.7221    1.9889 H   0  0  0  0  0  0  0  0  0  0  0  0
    3.6635    2.0562   -1.5944 H   0  0  0  0  0  0  0  0  0  0  0  0
    3.7717   -2.0728   -0.4263 H   0  0  0  0  0  0  0  0  0  0  0  0
    5.2122    0.6822   -2.5457 H   0  0  0  0  0  0  0  0  0  0  0  0
    3.0743    3.5620    1.4389 H   0  0  0  0  0  0  0  0  0  0  0  0
    2.1772    4.8459    0.6132 H   0  0  0  0  0  0  0  0  0  0  0  0
    3.4836    4.0030   -0.2266 H   0  0  0  0  0  0  0  0  0  0  0  0
    0.3065    2.5745   -1.7520 H   0  0  0  0  0  0  0  0  0  0  0  0
    0.4969    4.2557   -1.2321 H   0  0  0  0  0  0  0  0  0  0  0  0
    1.7907    3.4551   -2.1294 H   0  0  0  0  0  0  0  0  0  0  0  0
    0.7883   -2.7788   -0.4793 H   0  0  0  0  0  0  0  0  0  0  0  0
    0.4604   -3.7378    1.0051 H   0  0  0  0  0  0  0  0  0  0  0  0
    2.0034   -3.8414    0.1717 H   0  0  0  0  0  0  0  0  0  0  0  0
    3.6915   -3.0035    1.7610 H   0  0  0  0  0  0  0  0  0  0  0  0
    2.4118   -3.3756    2.9225 H   0  0  0  0  0  0  0  0  0  0  0  0
    3.2128   -1.7966    2.9637 H   0  0  0  0  0  0  0  0  0  0  0  0
    4.4385   -2.2757   -2.7463 H   0  0  0  0  0  0  0  0  0  0  0  0
    3.7212   -0.9605   -3.6902 H   0  0  0  0  0  0  0  0  0  0  0  0
    5.4402   -1.3477   -3.8711 H   0  0  0  0  0  0  0  0  0  0  0  0
    6.1340   -1.6872   -0.8358 H   0  0  0  0  0  0  0  0  0  0  0  0
    7.0883   -0.7770   -2.0150 H   0  0  0  0  0  0  0  0  0  0  0  0
    6.5265    0.0124   -0.5322 H   0  0  0  0  0  0  0  0  0  0  0  0
  1  2  1  0  0  0  0
  1  3  1  0  0  0  0
  1 14  1  0  0  0  0
  2  4  1  0  0  0  0
  2  5  1  0  0  0  0
  2 35  1  0  0  0  0
  3  6  1  0  0  0  0
  3  7  1  0  0  0  0
  3 36  1  0  0  0  0
  4  8  1  0  0  0  0
  4 37  1  0  0  0  0
  4 38  1  0  0  0  0
  5  9  1  0  0  0  0
  5 39  1  0  0  0  0
  5 40  1  0  0  0  0
  6 10  1  0  0  0  0
  6 41  1  0  0  0  0
  6 42  1  0  0  0  0
  7 11  1  0  0  0  0
  7 43  1  0  0  0  0
  7 44  1  0  0  0  0
  8 12  1  0  0  0  0
  8 45  1  0  0  0  0
  8 46  1  0  0  0  0
  9 12  1  0  0  0  0
  9 47  1  0  0  0  0
  9 48  1  0  0  0  0
 10 13  1  0  0  0  0
 10 49  1  0  0  0  0
 10 50  1  0  0  0  0
 11 13  1  0  0  0  0
 11 51  1  0  0  0  0
 11 52  1  0  0  0  0
 12 53  1  0  0  0  0
 12 54  1  0  0  0  0
 13 55  1  0  0  0  0
 13 56  1  0  0  0  0
 14 15  1  0  0  0  0
 14 16  2  0  0  0  0
 15 17  1  0  0  0  0
 15 18  2  0  0  0  0
 16 21  1  0  0  0  0
 16 57  1  0  0  0  0
 17 19  2  0  0  0  0
 17 20  1  0  0  0  0
 18 22  1  0  0  0  0
 18 58  1  0  0  0  0
 19 23  1  0  0  0  0
 19 25  1  0  0  0  0
 20 24  1  0  0  0  0
 20 26  2  0  0  0  0
 21 22  2  0  0  0  0
 21 59  1  0  0  0  0
 22 60  1  0  0  0  0
 23 29  1  0  0  0  0
 23 30  1  0  0  0  0
 23 61  1  0  0  0  0
 24 31  1  0  0  0  0
 24 32  1  0  0  0  0
 24 62  1  0  0  0  0
 25 27  2  0  0  0  0
 25 63  1  0  0  0  0
 26 27  1  0  0  0  0
 26 64  1  0  0  0  0
 27 28  1  0  0  0  0
 28 33  1  0  0  0  0
 28 34  1  0  0  0  0
 28 65  1  0  0  0  0
 29 66  1  0  0  0  0
 29 67  1  0  0  0  0
 29 68  1  0  0  0  0
 30 69  1  0  0  0  0
 30 70  1  0  0  0  0
 30 71  1  0  0  0  0
 31 72  1  0  0  0  0
 31 73  1  0  0  0  0
 31 74  1  0  0  0  0
 32 75  1  0  0  0  0
 32 76  1  0  0  0  0
 32 77  1  0  0  0  0
 33 78  1  0  0  0  0
 33 79  1  0  0  0  0
 33 80  1  0  0  0  0
 34 81  1  0  0  0  0
 34 82  1  0  0  0  0
 34 83  1  0  0  0  0
M  END
> <PUBCHEM_COMPOUND_CID>
11155794

> <PUBCHEM_CONFORMER_RMSD>
1

> <PUBCHEM_CONFORMER_DIVERSEORDER>
1
3
2
4

> <PUBCHEM_MMFF94_PARTIAL_CHARGES>
22
1 -0.35
14 0.01
16 -0.15
18 -0.15
19 -0.14
2 0.17
20 -0.14
21 -0.15
22 -0.15
23 0.14
24 0.14
25 -0.15
26 -0.15
27 -0.14
28 0.14
3 0.17
57 0.15
58 0.15
59 0.15
60 0.15
63 0.15
64 0.15

> <PUBCHEM_EFFECTIVE_ROTOR_COUNT>
9.4

> <PUBCHEM_PHARMACOPHORE_FEATURES>
7
3 23 29 30 hydrophobe
3 24 31 32 hydrophobe
3 28 33 34 hydrophobe
6 14 15 16 18 21 22 rings
6 17 19 20 25 26 27 rings
6 2 4 5 8 9 12 rings
6 3 6 7 10 11 13 rings

> <PUBCHEM_HEAVY_ATOM_COUNT>
34

> <PUBCHEM_ATOM_DEF_STEREO_COUNT>
0

> <PUBCHEM_ATOM_UDEF_STEREO_COUNT>
0

> <PUBCHEM_BOND_DEF_STEREO_COUNT>
0

> <PUBCHEM_BOND_UDEF_STEREO_COUNT>
0

> <PUBCHEM_ISOTOPIC_ATOM_COUNT>
0

> <PUBCHEM_COMPONENT_COUNT>
1

> <PUBCHEM_CACTVS_TAUTO_COUNT>
1

> <PUBCHEM_CONFORMER_ID>
00AA395200000001

> <PUBCHEM_MMFF94_ENERGY>
117.4797

> <PUBCHEM_FEATURE_SELFOVERLAP>
35.524

> <PUBCHEM_SHAPE_FINGERPRINT>
10165383 225 15358272467464191941
10190108 129 17824004383847706323
11578080 2 17986380308145325041
11621639 254 17247563491288008580
12156800 1 16243446187653193683
12160290 23 15839060340853038753
12293681 25 17345452938220147611
12363563 72 16056871438320995501
12633046 712 17559682922337949987
12788726 201 17982450395557468120
13690498 29 18337683030030371567
14068700 675 16987990592839924356
14114206 34 17845941718952830473
15664445 248 17616797174054613193
17809404 112 16342268415962831063
17980427 26 16082202992276365691
19309040 13 17024337152576277990
19311894 1 18269575865839519422
19319366 153 17386849396091711938
20600515 1 17985802901115057714
21756936 100 16298395655767635404
22393880 68 18335983146825807062
238 59 17751365207955403736
3380486 77 17761203324163033267
340366 18 18044076974358702779
46194498 28 18198627829109758606
463206 1 18263353703720482822
484985 159 17916046614636730351
57527295 17 17675925417635357696
57527452 28 17762875694228534371
57527585 103 17771381662435899855
57527585 21 16880506909921269663
7808743 9 15502957267061656876

> <PUBCHEM_SHAPE_MULTIPOLES>
703.55
9.63
4.81
3.29
3.94
1.57
-1.91
0.59
8.64
-3.71
0.46
0.39
-0.56
0.88

> <PUBCHEM_SHAPE_SELFOVERLAP>
1452.4

> <PUBCHEM_SHAPE_VOLUME>
400.4

> <PUBCHEM_COORDINATE_TYPE>
2
5
10

$$$$
16217985
  -OEChem-10112310443D

 76 79  0     0  0  0  0  0  0999 V2000
   -1.3731    0.2682   -0.4156 P   0  0  0  0  0  0  0  0  0  0  0  0
    2.3144    1.8030   -0.2479 O   0  0  0  0  0  0  0  0  0  0  0  0
    1.1289   -2.8513   -0.4962 O   0  0  0  0  0  0  0  0  0  0  0  0
   -1.9192    2.0207   -0.1001 C   0  0  0  0  0  0  0  0  0  0  0  0
   -2.9743   -0.5901   -0.0054 C   0  0  0  0  0  0  0  0  0  0  0  0
   -2.4285    2.6708   -1.3927 C   0  0  0  0  0  0  0  0  0  0  0  0
   -0.7795    2.8403    0.5182 C   0  0  0  0  0  0  0  0  0  0  0  0
   -4.0080   -0.3688   -1.1171 C   0  0  0  0  0  0  0  0  0  0  0  0
   -2.7400   -2.0860    0.2407 C   0  0  0  0  0  0  0  0  0  0  0  0
   -2.8401    4.1241   -1.1625 C   0  0  0  0  0  0  0  0  0  0  0  0
   -1.1954    4.2933    0.7436 C   0  0  0  0  0  0  0  0  0  0  0  0
   -5.3144   -1.1028   -0.8185 C   0  0  0  0  0  0  0  0  0  0  0  0
   -4.0497   -2.8154    0.5356 C   0  0  0  0  0  0  0  0  0  0  0  0
   -1.7094    4.9374   -0.5403 C   0  0  0  0  0  0  0  0  0  0  0  0
   -5.0804   -2.5889   -0.5659 C   0  0  0  0  0  0  0  0  0  0  0  0
   -0.3329   -0.0758    1.0412 C   0  0  0  0  0  0  0  0  0  0  0  0
    1.0167   -0.4147    0.9420 C   0  0  0  0  0  0  0  0  0  0  0  0
   -0.9396    0.0117    2.2943 C   0  0  0  0  0  0  0  0  0  0  0  0
    1.7004   -0.5207   -0.3345 C   0  0  0  0  0  0  0  0  0  0  0  0
    1.7592   -0.6660    2.0959 C   0  0  0  0  0  0  0  0  0  0  0  0
   -0.1970   -0.2393    3.4480 C   0  0  0  0  0  0  0  0  0  0  0  0
    1.1523   -0.5783    3.3488 C   0  0  0  0  0  0  0  0  0  0  0  0
    2.3259    0.5976   -0.8857 C   0  0  0  0  0  0  0  0  0  0  0  0
    1.7307   -1.7406   -1.0105 C   0  0  0  0  0  0  0  0  0  0  0  0
    2.9817    0.4960   -2.1127 C   0  0  0  0  0  0  0  0  0  0  0  0
    2.3866   -1.8422   -2.2373 C   0  0  0  0  0  0  0  0  0  0  0  0
    3.0120   -0.7241   -2.7883 C   0  0  0  0  0  0  0  0  0  0  0  0
    3.5786    2.3622    0.1006 C   0  0  0  0  0  0  0  0  0  0  0  0
    1.9636   -3.9777   -0.2377 C   0  0  0  0  0  0  0  0  0  0  0  0
    3.7510    3.6938   -0.6141 C   0  0  0  0  0  0  0  0  0  0  0  0
    3.6591    2.5154    1.6117 C   0  0  0  0  0  0  0  0  0  0  0  0
    1.9226   -4.3006    1.2482 C   0  0  0  0  0  0  0  0  0  0  0  0
    1.4977   -5.1513   -1.0859 C   0  0  0  0  0  0  0  0  0  0  0  0
   -2.7417    2.0085    0.6260 H   0  0  0  0  0  0  0  0  0  0  0  0
   -3.3974   -0.1631    0.9109 H   0  0  0  0  0  0  0  0  0  0  0  0
   -1.6293    2.6572   -2.1477 H   0  0  0  0  0  0  0  0  0  0  0  0
   -3.2663    2.1521   -1.8535 H   0  0  0  0  0  0  0  0  0  0  0  0
   -0.4455    2.4584    1.4851 H   0  0  0  0  0  0  0  0  0  0  0  0
    0.0866    2.8399   -0.1516 H   0  0  0  0  0  0  0  0  0  0  0  0
   -4.2839    0.6812   -1.1934 H   0  0  0  0  0  0  0  0  0  0  0  0
   -3.6184   -0.6882   -2.0918 H   0  0  0  0  0  0  0  0  0  0  0  0
   -2.2691   -2.5462   -0.6388 H   0  0  0  0  0  0  0  0  0  0  0  0
   -2.0595   -2.2606    1.0809 H   0  0  0  0  0  0  0  0  0  0  0  0
   -3.1355    4.5783   -2.1152 H   0  0  0  0  0  0  0  0  0  0  0  0
   -3.7191    4.1551   -0.5070 H   0  0  0  0  0  0  0  0  0  0  0  0
   -1.9767    4.3348    1.5125 H   0  0  0  0  0  0  0  0  0  0  0  0
   -0.3416    4.8655    1.1242 H   0  0  0  0  0  0  0  0  0  0  0  0
   -5.7930   -0.6553    0.0617 H   0  0  0  0  0  0  0  0  0  0  0  0
   -6.0086   -0.9763   -1.6570 H   0  0  0  0  0  0  0  0  0  0  0  0
   -3.8568   -3.8889    0.6433 H   0  0  0  0  0  0  0  0  0  0  0  0
   -4.4544   -2.4659    1.4935 H   0  0  0  0  0  0  0  0  0  0  0  0
   -2.0594    5.9538   -0.3284 H   0  0  0  0  0  0  0  0  0  0  0  0
   -0.8853    5.0264   -1.2589 H   0  0  0  0  0  0  0  0  0  0  0  0
   -6.0258   -3.0698   -0.2910 H   0  0  0  0  0  0  0  0  0  0  0  0
   -4.7359   -3.0661   -1.4915 H   0  0  0  0  0  0  0  0  0  0  0  0
   -1.9782    0.2960    2.4295 H   0  0  0  0  0  0  0  0  0  0  0  0
    2.8125   -0.9313    2.0401 H   0  0  0  0  0  0  0  0  0  0  0  0
   -0.6674   -0.1654    4.4241 H   0  0  0  0  0  0  0  0  0  0  0  0
    1.7309   -0.7725    4.2471 H   0  0  0  0  0  0  0  0  0  0  0  0
    3.4646    1.3566   -2.5656 H   0  0  0  0  0  0  0  0  0  0  0  0
    2.4119   -2.7790   -2.7858 H   0  0  0  0  0  0  0  0  0  0  0  0
    3.5181   -0.8018   -3.7462 H   0  0  0  0  0  0  0  0  0  0  0  0
    4.4046    1.7039   -0.2016 H   0  0  0  0  0  0  0  0  0  0  0  0
    3.0111   -3.7670   -0.4934 H   0  0  0  0  0  0  0  0  0  0  0  0
    2.9493    4.3882   -0.3388 H   0  0  0  0  0  0  0  0  0  0  0  0
    4.7121    4.1559   -0.3685 H   0  0  0  0  0  0  0  0  0  0  0  0
    3.6947    3.5673   -1.6998 H   0  0  0  0  0  0  0  0  0  0  0  0
    2.8127    3.0981    1.9916 H   0  0  0  0  0  0  0  0  0  0  0  0
    4.5889    3.0073    1.9136 H   0  0  0  0  0  0  0  0  0  0  0  0
    3.6168    1.5389    2.1018 H   0  0  0  0  0  0  0  0  0  0  0  0
    0.8915   -4.4438    1.5896 H   0  0  0  0  0  0  0  0  0  0  0  0
    2.4971   -5.2039    1.4757 H   0  0  0  0  0  0  0  0  0  0  0  0
    2.3391   -3.4769    1.8341 H   0  0  0  0  0  0  0  0  0  0  0  0
    0.4556   -5.4038   -0.8602 H   0  0  0  0  0  0  0  0  0  0  0  0
    2.1162   -6.0374   -0.9130 H   0  0  0  0  0  0  0  0  0  0  0  0
    1.5353   -4.9053   -2.1517 H   0  0  0  0  0  0  0  0  0  0  0  0
  1  4  1  0  0  0  0
  1  5  1  0  0  0  0
  1 16  1  0  0  0  0
  2 23  1  0  0  0  0
  2 28  1  0  0  0  0
  3 24  1  0  0  0  0
  3 29  1  0  0  0  0
  4  6  1  0  0  0  0
  4  7  1  0  0  0  0
  4 34  1  0  0  0  0
  5  8  1  0  0  0  0
  5  9  1  0  0  0  0
  5 35  1  0  0  0  0
  6 10  1  0  0  0  0
  6 36  1  0  0  0  0
  6 37  1  0  0  0  0
  7 11  1  0  0  0  0
  7 38  1  0  0  0  0
  7 39  1  0  0  0  0
  8 12  1  0  0  0  0
  8 40  1  0  0  0  0
  8 41  1  0  0  0  0
  9 13  1  0  0  0  0
  9 42  1  0  0  0  0
  9 43  1  0  0  0  0
 10 14  1  0  0  0  0
 10 44  1  0  0  0  0
 10 45  1  0  0  0  0
 11 14  1  0  0  0  0
 11 46  1  0  0  0  0
 11 47  1  0  0  0  0
 12 15  1  0  0  0  0
 12 48  1  0  0  0  0
 12 49  1  0  0  0  0
 13 15  1  0  0  0  0
 13 50  1  0  0  0  0
 13 51  1  0  0  0  0
 14 52  1  0  0  0  0
 14 53  1  0  0  0  0
 15 54  1  0  0  0  0
 15 55  1  0  0  0  0
 16 17  1  0  0  0  0
 16 18  2  0  0  0  0
 17 19  1  0  0  0  0
 17 20  2  0  0  0  0
 18 21  1  0  0  0  0
 18 56  1  0  0  0  0
 19 23  2  0  0  0  0
 19 24  1  0  0  0  0
 20 22  1  0  0  0  0
 20 57  1  0  0  0  0
 21 22  2  0  0  0  0
 21 58  1  0  0  0  0
 22 59  1  0  0  0  0
 23 25  1  0  0  0  0
 24 26  2  0  0  0  0
 25 27  2  0  0  0  0
 25 60  1  0  0  0  0
 26 27  1  0  0  0  0
 26 61  1  0  0  0  0
 27 62  1  0  0  0  0
 28 30  1  0  0  0  0
 28 31  1  0  0  0  0
 28 63  1  0  0  0  0
 29 32  1  0  0  0  0
 29 33  1  0  0  0  0
 29 64  1  0  0  0  0
 30 65  1  0  0  0  0
 30 66  1  0  0  0  0
 30 67  1  0  0  0  0
 31 68  1  0  0  0  0
 31 69  1  0  0  0  0
 31 70  1  0  0  0  0
 32 71  1  0  0  0  0
 32 72  1  0  0  0  0
 32 73  1  0  0  0  0
 33 74  1  0  0  0  0
 33 75  1  0  0  0  0
 33 76  1  0  0  0  0
M  END
> <PUBCHEM_COMPOUND_CID>
16217985

> <PUBCHEM_CONFORMER_RMSD>
1

> <PUBCHEM_CONFORMER_DIVERSEORDER>
1
3
5
2
4

> <PUBCHEM_MMFF94_PARTIAL_CHARGES>
24
1 -0.35
16 0.01
18 -0.15
2 -0.36
20 -0.15
21 -0.15
22 -0.15
23 0.08
24 0.08
25 -0.15
26 -0.15
27 -0.15
28 0.28
29 0.28
3 -0.36
4 0.17
5 0.17
56 0.15
57 0.15
58 0.15
59 0.15
60 0.15
61 0.15
62 0.15

> <PUBCHEM_EFFECTIVE_ROTOR_COUNT>
10.4

> <PUBCHEM_PHARMACOPHORE_FEATURES>
8
1 2 acceptor
1 3 acceptor
3 28 30 31 hydrophobe
3 29 32 33 hydrophobe
6 16 17 18 20 21 22 rings
6 19 23 24 25 26 27 rings
6 4 6 7 10 11 14 rings
6 5 8 9 12 13 15 rings

> <PUBCHEM_HEAVY_ATOM_COUNT>
33

> <PUBCHEM_ATOM_DEF_STEREO_COUNT>
0

> <PUBCHEM_ATOM_UDEF_STEREO_COUNT>
0

> <PUBCHEM_BOND_DEF_STEREO_COUNT>
0

> <PUBCHEM_BOND_UDEF_STEREO_COUNT>
0

> <PUBCHEM_ISOTOPIC_ATOM_COUNT>
0

> <PUBCHEM_COMPONENT_COUNT>
1

> <PUBCHEM_CACTVS_TAUTO_COUNT>
1

> <PUBCHEM_CONFORMER_ID>
00F7778100000001

> <PUBCHEM_MMFF94_ENERGY>
96.226

> <PUBCHEM_FEATURE_SELFOVERLAP>
40.598

> <PUBCHEM_SHAPE_FINGERPRINT>
10675989 125 18335691695046451039
11578080 2 17913766120620638496
11582403 64 17753320165294119218
12107698 1 18334284397282677872
12422481 6 16320927187198848978
12788726 201 18260548875633668177
1361 2 17909272729635346741
13636023 20 18200027481932198703
13911987 19 17902535979031493812
14068700 675 17460561841039566139
15664445 248 18339361997687351137
16728300 4 17754134757729521616
17909252 39 18409454648155512623
20600515 1 14885011082101299858
20775438 99 18052785136869271989
23419403 2 15756492296596147088
23559900 14 18266166254464749895
238 59 18116457936469035758
3380486 77 16733540662356747292
340366 18 17542235557858328199
3493558 16 18122033461343899912
57527295 17 17754478767182518206
57527358 35 14708891219401240839
57527585 21 17465716394658359181
70251023 43 18268733660980016735
9981440 41 18408604769134198056

> <PUBCHEM_SHAPE_MULTIPOLES>
671.24
7.48
6.84
2.67
6.61
1.22
-1.68
-1.2
3.15
-0.2
1.41
-1.96
-0.61
1.01

> <PUBCHEM_SHAPE_SELFOVERLAP>
1383.51

> <PUBCHEM_SHAPE_VOLUME>
386.6

> <PUBCHEM_COORDINATE_TYPE>
2
5
10

$$$$
688210
  -OEChem-10112310443D

 51 52  0     1  0  0  0  0  0999 V2000
    1.6156    1.3904    1.3482 O   0  0  0  0  0  0  0  0  0  0  0  0
   -2.4462    1.8354   -0.2615 O   0  0  0  0  0  0  0  0  0  0  0  0
    1.8442    0.5523   -0.7720 N   0  0  0  0  0  0  0  0  0  0  0  0
   -1.2853   -0.0081    0.4483 N   0  0  0  0  0  0  0  0  0  0  0  0
   -0.0624    2.0258   -0.2331 C   0  0  0  0  0  0  0  0  0  0  0  0
    3.3189   -1.3379   -0.2465 C   0  0  0  0  0  0  0  0  0  0  0  0
   -3.0373   -1.6883    0.0865 C   0  0  0  0  0  0  0  0  0  0  0  0
    3.0183    0.1271    0.0091 C   0  0  2  0  0  0  0  0  0  0  0  0
   -2.7221   -0.2954    0.5986 C   0  0  2  0  0  0  0  0  0  0  0  0
    1.1845    1.2806    0.0714 C   0  0  0  0  0  0  0  0  0  0  0  0
   -1.2786    1.2124    0.0158 C   0  0  0  0  0  0  0  0  0  0  0  0
    2.6468    0.4190    1.4504 C   0  0  0  0  0  0  0  0  0  0  0  0
   -3.4171    0.8016   -0.1849 C   0  0  0  0  0  0  0  0  0  0  0  0
    4.5545   -1.7555    0.5635 C   0  0  0  0  0  0  0  0  0  0  0  0
    2.1149   -2.1895    0.1809 C   0  0  0  0  0  0  0  0  0  0  0  0
    3.5915   -1.5510   -1.7423 C   0  0  0  0  0  0  0  0  0  0  0  0
   -4.5388   -1.9901    0.2614 C   0  0  0  0  0  0  0  0  0  0  0  0
   -2.6791   -1.7968   -1.4090 C   0  0  0  0  0  0  0  0  0  0  0  0
   -2.2245   -2.7377    0.8701 C   0  0  0  0  0  0  0  0  0  0  0  0
   -0.0426    2.4336   -1.7117 C   0  0  0  0  0  0  0  0  0  0  0  0
   -0.1551    3.2721    0.6567 C   0  0  0  0  0  0  0  0  0  0  0  0
    3.8685    0.7546   -0.2912 H   0  0  0  0  0  0  0  0  0  0  0  0
   -2.9742   -0.2106    1.6644 H   0  0  0  0  0  0  0  0  0  0  0  0
    2.2659   -0.4087    2.0488 H   0  0  0  0  0  0  0  0  0  0  0  0
    3.4939    0.8536    1.9918 H   0  0  0  0  0  0  0  0  0  0  0  0
   -3.7335    0.5653   -1.2012 H   0  0  0  0  0  0  0  0  0  0  0  0
   -4.2939    1.1736    0.3557 H   0  0  0  0  0  0  0  0  0  0  0  0
    5.4245   -1.1419    0.3029 H   0  0  0  0  0  0  0  0  0  0  0  0
    4.8171   -2.8010    0.3640 H   0  0  0  0  0  0  0  0  0  0  0  0
    4.3921   -1.6643    1.6427 H   0  0  0  0  0  0  0  0  0  0  0  0
    1.1780   -1.8560   -0.2773 H   0  0  0  0  0  0  0  0  0  0  0  0
    1.9715   -2.2395    1.2635 H   0  0  0  0  0  0  0  0  0  0  0  0
    2.2621   -3.2284   -0.1416 H   0  0  0  0  0  0  0  0  0  0  0  0
    2.7104   -1.3342   -2.3562 H   0  0  0  0  0  0  0  0  0  0  0  0
    3.8771   -2.5898   -1.9446 H   0  0  0  0  0  0  0  0  0  0  0  0
    4.4104   -0.9117   -2.0913 H   0  0  0  0  0  0  0  0  0  0  0  0
   -5.1655   -1.3049   -0.3191 H   0  0  0  0  0  0  0  0  0  0  0  0
   -4.7756   -3.0075   -0.0707 H   0  0  0  0  0  0  0  0  0  0  0  0
   -4.8364   -1.9069    1.3128 H   0  0  0  0  0  0  0  0  0  0  0  0
   -1.6500   -1.4849   -1.6164 H   0  0  0  0  0  0  0  0  0  0  0  0
   -3.3495   -1.2299   -2.0602 H   0  0  0  0  0  0  0  0  0  0  0  0
   -2.7606   -2.8406   -1.7383 H   0  0  0  0  0  0  0  0  0  0  0  0
   -2.4210   -2.6649    1.9458 H   0  0  0  0  0  0  0  0  0  0  0  0
   -2.4861   -3.7544    0.5550 H   0  0  0  0  0  0  0  0  0  0  0  0
   -1.1468   -2.6181    0.7161 H   0  0  0  0  0  0  0  0  0  0  0  0
   -0.8864    3.0860   -1.9653 H   0  0  0  0  0  0  0  0  0  0  0  0
    0.8771    2.9749   -1.9639 H   0  0  0  0  0  0  0  0  0  0  0  0
   -0.1064    1.5597   -2.3718 H   0  0  0  0  0  0  0  0  0  0  0  0
    0.7654    3.8660    0.6073 H   0  0  0  0  0  0  0  0  0  0  0  0
   -0.9806    3.9268    0.3530 H   0  0  0  0  0  0  0  0  0  0  0  0
   -0.3283    3.0118    1.7082 H   0  0  0  0  0  0  0  0  0  0  0  0
  1 10  1  0  0  0  0
  1 12  1  0  0  0  0
  2 11  1  0  0  0  0
  2 13  1  0  0  0  0
  3  8  1  0  0  0  0
  3 10  2  0  0  0  0
  4  9  1  0  0  0  0
  4 11  2  0  0  0  0
  5 10  1  0  0  0  0
  5 11  1  0  0  0  0
  5 20  1  0  0  0  0
  5 21  1  0  0  0  0
  6  8  1  0  0  0  0
  6 14  1  0  0  0  0
  6 15  1  0  0  0  0
  6 16  1  0  0  0  0
  7  9  1  0  0  0  0
  7 17  1  0  0  0  0
  7 18  1  0  0  0  0
  7 19  1  0  0  0  0
  8 12  1  0  0  0  0
  8 22  1  0  0  0  0
  9 13  1  0  0  0  0
  9 23  1  0  0  0  0
 12 24  1  0  0  0  0
 12 25  1  0  0  0  0
 13 26  1  0  0  0  0
 13 27  1  0  0  0  0
 14 28  1  0  0  0  0
 14 29  1  0  0  0  0
 14 30  1  0  0  0  0
 15 31  1  0  0  0  0
 15 32  1  0  0  0  0
 15 33  1  0  0  0  0
 16 34  1  0  0  0  0
 16 35  1  0  0  0  0
 16 36  1  0  0  0  0
 17 37  1  0  0  0  0
 17 38  1  0  0  0  0
 17 39  1  0  0  0  0
 18 40  1  0  0  0  0
 18 41  1  0  0  0  0
 18 42  1  0  0  0  0
 19 43  1  0  0  0  0
 19 44  1  0  0  0  0
 19 45  1  0  0  0  0
 20 46  1  0  0  0  0
 20 47  1  0  0  0  0
 20 48  1  0  0  0  0
 21 49  1  0  0  0  0
 21 50  1  0  0  0  0
 21 51  1  0  0  0  0
M  END
> <PUBCHEM_COMPOUND_CID>
688210

> <PUBCHEM_CONFORMER_RMSD>
0.8

> <PUBCHEM_CONFORMER_DIVERSEORDER>
1
3
4
15
14
10
9
5
13
2
11
8
12
6
7

> <PUBCHEM_MMFF94_PARTIAL_CHARGES>
11
1 -0.43
10 0.54
11 0.54
12 0.28
13 0.28
2 -0.43
3 -0.7
4 -0.7
5 0.12
8 0.25
9 0.25

> <PUBCHEM_EFFECTIVE_ROTOR_COUNT>
5.2

> <PUBCHEM_PHARMACOPHORE_FEATURES>
5
3 5 20 21 hydrophobe
4 6 14 15 16 hydrophobe
4 7 17 18 19 hydrophobe
5 1 3 8 10 12 rings
5 2 4 9 11 13 rings

> <PUBCHEM_HEAVY_ATOM_COUNT>
21

> <PUBCHEM_ATOM_DEF_STEREO_COUNT>
2

> <PUBCHEM_ATOM_UDEF_STEREO_COUNT>
0

> <PUBCHEM_BOND_DEF_STEREO_COUNT>
0

> <PUBCHEM_BOND_UDEF_STEREO_COUNT>
0

> <PUBCHEM_ISOTOPIC_ATOM_COUNT>
0

> <PUBCHEM_COMPONENT_COUNT>
1

> <PUBCHEM_CACTVS_TAUTO_COUNT>
1

> <PUBCHEM_CONFORMER_ID>
000A805200000001

> <PUBCHEM_MMFF94_ENERGY>
60.7827

> <PUBCHEM_FEATURE_SELFOVERLAP>
25.373

> <PUBCHEM_SHAPE_FINGERPRINT>
10616163 171 18339365137081883670
10618630 7 18408886222144798888
11725454 13 14116137659533047035
117890 22 18272933838326701286
12173636 292 17473544647208685748
12202030 40 18342448232068381552
12363563 72 18408886260652123450
12403259 327 16199878391917337747
12506688 2 18272652324990443840
12553582 1 18408893948638146123
12596599 1 18059869319861127634
12596602 18 14404601226211846478
12633257 1 18129384795775817450
13140716 1 18412544284260826778
13533116 47 18054515970314233611
13631057 29 18337675214065461962
13965767 371 12318917789297838531
14081887 123 18268696230735612698
14251705 54 18192997238527452539
14251731 5 18412548708161940170
14251745 187 18410852131935079450
14251757 17 17762569145707036071
14429115 67 17631164380804917143
14863182 85 17325492601656059317
14866123 147 17909838630705352635
15352361 1 18410011052420597331
15422964 175 18341607152706718016
16752209 62 17972306327001658485
17357779 13 18338503218464949871
17804303 29 18341900662366297937
1813 80 17967533501691538037
18186145 218 7853581252620732628
19141452 34 18341614785390818513
19591789 44 17618226100868027105
20281475 54 18410579482778603608
20291156 8 18409733975532296927
20403669 9 18412547613008778167
20442098 301 18272928362190534423
20602899 9 17613419069990618237
20645477 70 17901379310480036843
20905425 154 18195529177572710158
21069387 34 17917698116004369805
21452121 199 18409728491207375520
21634736 98 18261968383562228734
21864079 5 11243617421025504591
2255824 54 17831867124172549549
23184049 29 18412261718573588168
23402539 116 18040995112391517034
23557571 272 18411696582666261002
23559900 14 18339634560723370096
238078 22 18340503174829828156
26353 1 17458062689848823957
314173 41 18337680809684739931
3797600 57 14474136733537909042
46194498 28 17314786528340476983
5207 123 18411412943326960335
5262128 65 17970069044150605377
568465 68 17417806197938542282
6443956 14 18339361967522262409
7364860 26 18050851314389542041
81228 2 18262513702221894913
8809292 202 18338797801892688282
8988823 20 17202195416954534299
9709674 26 18265611172870010411

> <PUBCHEM_SHAPE_MULTIPOLES>
410.47
7.59
3.52
1.31
0.62
0.81
-0.35
-6.53
0.05
-0.98
-0.05
0.62
0.04
0.56

> <PUBCHEM_SHAPE_SELFOVERLAP>
852.772

> <PUBCHEM_SHAPE_VOLUME>
239.4

> <PUBCHEM_COORDINATE_TYPE>
2
5
10

$$$$
676388
  -OEChem-10112310443D

 47 50  0     1  0  0  0  0  0999 V2000
   -1.4632   -1.7151   -1.3826 O   0  0  0  0  0  0  0  0  0  0  0  0
    2.0975   -2.7061    0.5507 O   0  0  0  0  0  0  0  0  0  0  0  0
   -2.3816   -1.4014    0.6914 N   0  0  0  0  0  0  0  0  0  0  0  0
    1.1318   -0.9323   -0.5287 N   0  0  0  0  0  0  0  0  0  0  0  0
   -0.2906   -2.6900    0.4579 C   0  0  0  0  0  0  0  0  0  0  0  0
   -1.4433   -1.9022   -0.0453 C   0  0  0  0  0  0  0  0  0  0  0  0
    1.0023   -2.0434    0.1212 C   0  0  0  0  0  0  0  0  0  0  0  0
   -3.2323   -0.6732   -0.2709 C   0  0  2  0  0  0  0  0  0  0  0  0
    2.5959   -0.7761   -0.6549 C   0  0  2  0  0  0  0  0  0  0  0  0
   -0.3825   -2.7999    1.9793 C   0  0  0  0  0  0  0  0  0  0  0  0
   -0.3445   -4.0733   -0.1893 C   0  0  0  0  0  0  0  0  0  0  0  0
   -2.7189   -1.1014   -1.6414 C   0  0  0  0  0  0  0  0  0  0  0  0
    3.1805   -1.8274    0.2786 C   0  0  0  0  0  0  0  0  0  0  0  0
   -3.1934    0.8238   -0.0433 C   0  0  0  0  0  0  0  0  0  0  0  0
    3.0828    0.6191   -0.3459 C   0  0  0  0  0  0  0  0  0  0  0  0
   -2.0580    1.4136    0.5098 C   0  0  0  0  0  0  0  0  0  0  0  0
    2.3789    1.4176    0.5540 C   0  0  0  0  0  0  0  0  0  0  0  0
   -4.2927    1.6084   -0.3875 C   0  0  0  0  0  0  0  0  0  0  0  0
    4.2353    1.1056   -0.9606 C   0  0  0  0  0  0  0  0  0  0  0  0
   -2.0219    2.7921    0.7193 C   0  0  0  0  0  0  0  0  0  0  0  0
    2.8287    2.7066    0.8398 C   0  0  0  0  0  0  0  0  0  0  0  0
   -4.2565    2.9870   -0.1780 C   0  0  0  0  0  0  0  0  0  0  0  0
    4.6850    2.3946   -0.6747 C   0  0  0  0  0  0  0  0  0  0  0  0
   -3.1211    3.5787    0.3754 C   0  0  0  0  0  0  0  0  0  0  0  0
    3.9818    3.1950    0.2256 C   0  0  0  0  0  0  0  0  0  0  0  0
   -4.2671   -1.0148   -0.1417 H   0  0  0  0  0  0  0  0  0  0  0  0
    2.8504   -1.0184   -1.6955 H   0  0  0  0  0  0  0  0  0  0  0  0
   -1.3288   -3.2542    2.2967 H   0  0  0  0  0  0  0  0  0  0  0  0
    0.4229   -3.4192    2.3919 H   0  0  0  0  0  0  0  0  0  0  0  0
   -0.3072   -1.8163    2.4596 H   0  0  0  0  0  0  0  0  0  0  0  0
    0.4046   -4.7495    0.2387 H   0  0  0  0  0  0  0  0  0  0  0  0
   -1.3274   -4.5396   -0.0522 H   0  0  0  0  0  0  0  0  0  0  0  0
   -0.1517   -4.0244   -1.2679 H   0  0  0  0  0  0  0  0  0  0  0  0
   -3.3745   -1.8503   -2.0992 H   0  0  0  0  0  0  0  0  0  0  0  0
   -2.5889   -0.2732   -2.3451 H   0  0  0  0  0  0  0  0  0  0  0  0
    3.9961   -2.3822   -0.1962 H   0  0  0  0  0  0  0  0  0  0  0  0
    3.5448   -1.4206    1.2285 H   0  0  0  0  0  0  0  0  0  0  0  0
   -1.1812    0.8331    0.7796 H   0  0  0  0  0  0  0  0  0  0  0  0
    1.4855    1.0574    1.0558 H   0  0  0  0  0  0  0  0  0  0  0  0
   -5.1818    1.1589   -0.8215 H   0  0  0  0  0  0  0  0  0  0  0  0
    4.7925    0.4904   -1.6620 H   0  0  0  0  0  0  0  0  0  0  0  0
   -1.1366    3.2534    1.1475 H   0  0  0  0  0  0  0  0  0  0  0  0
    2.2825    3.3290    1.5427 H   0  0  0  0  0  0  0  0  0  0  0  0
   -5.1121    3.5998   -0.4465 H   0  0  0  0  0  0  0  0  0  0  0  0
    5.5832    2.7749   -1.1523 H   0  0  0  0  0  0  0  0  0  0  0  0
   -3.0925    4.6522    0.5376 H   0  0  0  0  0  0  0  0  0  0  0  0
    4.3324    4.1984    0.4489 H   0  0  0  0  0  0  0  0  0  0  0  0
  1  6  1  0  0  0  0
  1 12  1  0  0  0  0
  2  7  1  0  0  0  0
  2 13  1  0  0  0  0
  3  6  2  0  0  0  0
  3  8  1  0  0  0  0
  4  7  2  0  0  0  0
  4  9  1  0  0  0  0
  5  6  1  0  0  0  0
  5  7  1  0  0  0  0
  5 10  1  0  0  0  0
  5 11  1  0  0  0  0
  8 12  1  0  0  0  0
  8 14  1  0  0  0  0
  8 26  1  0  0  0  0
  9 13  1  0  0  0  0
  9 15  1  0  0  0  0
  9 27  1  0  0  0  0
 10 28  1  0  0  0  0
 10 29  1  0  0  0  0
 10 30  1  0  0  0  0
 11 31  1  0  0  0  0
 11 32  1  0  0  0  0
 11 33  1  0  0  0  0
 12 34  1  0  0  0  0
 12 35  1  0  0  0  0
 13 36  1  0  0  0  0
 13 37  1  0  0  0  0
 14 16  2  0  0  0  0
 14 18  1  0  0  0  0
 15 17  2  0  0  0  0
 15 19  1  0  0  0  0
 16 20  1  0  0  0  0
 16 38  1  0  0  0  0
 17 21  1  0  0  0  0
 17 39  1  0  0  0  0
 18 22  2  0  0  0  0
 18 40  1  0  0  0  0
 19 23  2  0  0  0  0
 19 41  1  0  0  0  0
 20 24  2  0  0  0  0
 20 42  1  0  0  0  0
 21 25  2  0  0  0  0
 21 43  1  0  0  0  0
 22 24  1  0  0  0  0
 22 44  1  0  0  0  0
 23 25  1  0  0  0  0
 23 45  1  0  0  0  0
 24 46  1  0  0  0  0
 25 47  1  0  0  0  0
M  END
> <PUBCHEM_COMPOUND_CID>
676388

> <PUBCHEM_CONFORMER_RMSD>
0.8

> <PUBCHEM_CONFORMER_DIVERSEORDER>
1
17
35
26
31
36
5
30
33
3
19
37
15
9
24
10
29
7
22
23
2
13
18
25
32
14
6
8
21
11
27
4
28
12
20
16
34

> <PUBCHEM_MMFF94_PARTIAL_CHARGES>
33
1 -0.43
12 0.28
13 0.28
14 -0.14
15 -0.14
16 -0.15
17 -0.15
18 -0.15
19 -0.15
2 -0.43
20 -0.15
21 -0.15
22 -0.15
23 -0.15
24 -0.15
25 -0.15
3 -0.7
38 0.15
39 0.15
4 -0.7
40 0.15
41 0.15
42 0.15
43 0.15
44 0.15
45 0.15
46 0.15
47 0.15
5 0.12
6 0.54
7 0.54
8 0.39
9 0.39

> <PUBCHEM_EFFECTIVE_ROTOR_COUNT>
5.2

> <PUBCHEM_PHARMACOPHORE_FEATURES>
5
3 5 10 11 hydrophobe
5 1 3 6 8 12 rings
5 2 4 7 9 13 rings
6 14 16 18 20 22 24 rings
6 15 17 19 21 23 25 rings

> <PUBCHEM_HEAVY_ATOM_COUNT>
25

> <PUBCHEM_ATOM_DEF_STEREO_COUNT>
2

> <PUBCHEM_ATOM_UDEF_STEREO_COUNT>
0

> <PUBCHEM_BOND_DEF_STEREO_COUNT>
0

> <PUBCHEM_BOND_UDEF_STEREO_COUNT>
0

> <PUBCHEM_ISOTOPIC_ATOM_COUNT>
0

> <PUBCHEM_COMPONENT_COUNT>
1

> <PUBCHEM_CACTVS_TAUTO_COUNT>
1

> <PUBCHEM_CONFORMER_ID>
000A522400000001

> <PUBCHEM_MMFF94_ENERGY>
65.3375

> <PUBCHEM_FEATURE_SELFOVERLAP>
25.374

> <PUBCHEM_SHAPE_FINGERPRINT>
10006869 2 18335418019541095739
10498660 4 18051123989188694476
10670039 82 18192160506427301068
10871710 139 18341611577113643117
10937287 8 18410292488895290885
1100329 8 18266178319185548610
11211813 163 18191608500557225332
11221954 11 18341338841862590606
11370993 70 18410571781876036952
12038231 1 18411419488161326008
12107183 9 18262222362643666010
12173636 292 18337674216947273487
12403260 363 18338499885575972810
12788726 201 18120084241522361265
12978246 48 18339923701726067969
13122387 1 17907018374321290884
13140716 1 18262518087277424258
13402501 40 18054511584234720040
13583140 156 17537164649539624545
13590594 115 16897375209166712467
13617811 41 18337939195688303709
138480 1 17690281504023792697
13965767 371 17895184477021848332
14117953 113 16900457140544159869
14251764 75 18269849635492472553
14466204 15 18120646929915586450
14468879 13 18260275139797979833
14848178 96 18335695022807556397
14931854 50 18343019956545446357
14955137 171 17904201434368926450
15322687 12 18267583515962078937
17980427 23 17980165666176588866
18681886 176 17909537372888321451
20398071 114 18340764948412334992
21033650 10 17682707338879294148
21279426 13 18341063956362712124
21344244 78 16962367376297607875
21860390 5 17766556854910177687
21864079 5 18410293596833290334
22113638 7 17908413654608184456
22393880 68 18343306968109339692
23227448 37 18340767027618799423
23536364 44 17984736431151134116
23559900 14 18127402363257132640
238 59 18267031561056013128
392239 28 18261969453288959699
469060 322 17679595703112440523
474 4 18190740834656311019
5048184 11 18410858745868528620
5081480 168 16912035139427970246
508706 21 18126282176158479848
526903 126 18412543249458772233
5895379 119 17986669268980396232
5939293 188 17618221711263250577
6371009 1 18194380239582104285
7288768 16 17968097555277221475
84936 182 18411134714897086858
9981440 41 18265043807647933394

> <PUBCHEM_SHAPE_MULTIPOLES>
492.79
8.61
5.45
1.16
2.53
0.23
-0.06
-9.38
1.64
-0.57
-1.15
-0.15
0.5
-0.5

> <PUBCHEM_SHAPE_SELFOVERLAP>
1080.652

> <PUBCHEM_SHAPE_VOLUME>
267.4

> <PUBCHEM_COORDINATE_TYPE>
2
5
10

$$$$
676390
  -OEChem-10112310443D

 47 50  0     1  0  0  0  0  0999 V2000
   -1.4649    1.7227   -1.3825 O   0  0  0  0  0  0  0  0  0  0  0  0
    2.1028    2.7016    0.5544 O   0  0  0  0  0  0  0  0  0  0  0  0
   -2.3752    1.4012    0.6939 N   0  0  0  0  0  0  0  0  0  0  0  0
    1.1356    0.9337   -0.5333 N   0  0  0  0  0  0  0  0  0  0  0  0
   -0.2851    2.6902    0.4573 C   0  0  0  0  0  0  0  0  0  0  0  0
   -1.4386    1.9027   -0.0444 C   0  0  0  0  0  0  0  0  0  0  0  0
    1.0073    2.0442    0.1178 C   0  0  0  0  0  0  0  0  0  0  0  0
   -3.2305    0.6776   -0.2677 C   0  0  1  0  0  0  0  0  0  0  0  0
    2.5995    0.7735   -0.6563 C   0  0  1  0  0  0  0  0  0  0  0  0
   -0.3045    4.0762   -0.1860 C   0  0  0  0  0  0  0  0  0  0  0  0
   -0.4100    2.7967    1.9765 C   0  0  0  0  0  0  0  0  0  0  0  0
   -2.7217    1.1099   -1.6388 C   0  0  0  0  0  0  0  0  0  0  0  0
    3.1854    1.8239    0.2778 C   0  0  0  0  0  0  0  0  0  0  0  0
   -3.1933   -0.8198   -0.0430 C   0  0  0  0  0  0  0  0  0  0  0  0
    3.0811   -0.6231   -0.3454 C   0  0  0  0  0  0  0  0  0  0  0  0
   -4.2952   -1.6019   -0.3853 C   0  0  0  0  0  0  0  0  0  0  0  0
    4.2337   -1.1135   -0.9570 C   0  0  0  0  0  0  0  0  0  0  0  0
   -2.0572   -1.4129    0.5054 C   0  0  0  0  0  0  0  0  0  0  0  0
    2.3725   -1.4192    0.5532 C   0  0  0  0  0  0  0  0  0  0  0  0
   -4.2610   -2.9809   -0.1787 C   0  0  0  0  0  0  0  0  0  0  0  0
    4.6789   -2.4038   -0.6695 C   0  0  0  0  0  0  0  0  0  0  0  0
   -2.0232   -2.7920    0.7120 C   0  0  0  0  0  0  0  0  0  0  0  0
    2.8179   -2.7095    0.8406 C   0  0  0  0  0  0  0  0  0  0  0  0
   -3.1251   -3.5759    0.3699 C   0  0  0  0  0  0  0  0  0  0  0  0
    3.9711   -3.2017    0.2291 C   0  0  0  0  0  0  0  0  0  0  0  0
   -4.2642    1.0206   -0.1336 H   0  0  0  0  0  0  0  0  0  0  0  0
    2.8571    1.0143   -1.6965 H   0  0  0  0  0  0  0  0  0  0  0  0
   -1.2835    4.5550   -0.0657 H   0  0  0  0  0  0  0  0  0  0  0  0
    0.4451    4.7419    0.2574 H   0  0  0  0  0  0  0  0  0  0  0  0
   -0.0959    4.0269   -1.2618 H   0  0  0  0  0  0  0  0  0  0  0  0
    0.3959    3.4044    2.4052 H   0  0  0  0  0  0  0  0  0  0  0  0
   -1.3557    3.2635    2.2773 H   0  0  0  0  0  0  0  0  0  0  0  0
   -0.3523    1.8119    2.4568 H   0  0  0  0  0  0  0  0  0  0  0  0
   -2.5943    0.2836   -2.3452 H   0  0  0  0  0  0  0  0  0  0  0  0
   -3.3787    1.8603   -2.0920 H   0  0  0  0  0  0  0  0  0  0  0  0
    3.5525    1.4155    1.2260 H   0  0  0  0  0  0  0  0  0  0  0  0
    3.9994    2.3801   -0.1981 H   0  0  0  0  0  0  0  0  0  0  0  0
   -5.1849   -1.1499   -0.8155 H   0  0  0  0  0  0  0  0  0  0  0  0
    4.7945   -0.5003   -1.6572 H   0  0  0  0  0  0  0  0  0  0  0  0
   -1.1786   -0.8346    0.7735 H   0  0  0  0  0  0  0  0  0  0  0  0
    1.4790   -1.0562    1.0528 H   0  0  0  0  0  0  0  0  0  0  0  0
   -5.1186   -3.5916   -0.4457 H   0  0  0  0  0  0  0  0  0  0  0  0
    5.5771   -2.7868   -1.1449 H   0  0  0  0  0  0  0  0  0  0  0  0
   -1.1374   -3.2558    1.1363 H   0  0  0  0  0  0  0  0  0  0  0  0
    2.2682   -3.3300    1.5423 H   0  0  0  0  0  0  0  0  0  0  0  0
   -3.0980   -4.6498    0.5298 H   0  0  0  0  0  0  0  0  0  0  0  0
    4.3182   -4.2061    0.4535 H   0  0  0  0  0  0  0  0  0  0  0  0
  1  6  1  0  0  0  0
  1 12  1  0  0  0  0
  2  7  1  0  0  0  0
  2 13  1  0  0  0  0
  3  6  2  0  0  0  0
  3  8  1  0  0  0  0
  4  7  2  0  0  0  0
  4  9  1  0  0  0  0
  5  6  1  0  0  0  0
  5  7  1  0  0  0  0
  5 10  1  0  0  0  0
  5 11  1  0  0  0  0
  8 12  1  0  0  0  0
  8 14  1  0  0  0  0
  8 26  1  0  0  0  0
  9 13  1  0  0  0  0
  9 15  1  0  0  0  0
  9 27  1  0  0  0  0
 10 28  1  0  0  0  0
 10 29  1  0  0  0  0
 10 30  1  0  0  0  0
 11 31  1  0  0  0  0
 11 32  1  0  0  0  0
 11 33  1  0  0  0  0
 12 34  1  0  0  0  0
 12 35  1  0  0  0  0
 13 36  1  0  0  0  0
 13 37  1  0  0  0  0
 14 16  2  0  0  0  0
 14 18  1  0  0  0  0
 15 17  2  0  0  0  0
 15 19  1  0  0  0  0
 16 20  1  0  0  0  0
 16 38  1  0  0  0  0
 17 21  1  0  0  0  0
 17 39  1  0  0  0  0
 18 22  2  0  0  0  0
 18 40  1  0  0  0  0
 19 23  2  0  0  0  0
 19 41  1  0  0  0  0
 20 24  2  0  0  0  0
 20 42  1  0  0  0  0
 21 25  2  0  0  0  0
 21 43  1  0  0  0  0
 22 24  1  0  0  0  0
 22 44  1  0  0  0  0
 23 25  1  0  0  0  0
 23 45  1  0  0  0  0
 24 46  1  0  0  0  0
 25 47  1  0  0  0  0
M  END
> <PUBCHEM_COMPOUND_CID>
676390

> <PUBCHEM_CONFORMER_RMSD>
0.8

> <PUBCHEM_CONFORMER_DIVERSEORDER>
1
19
30
37
4
6
7
2
32
36
25
5
22
28
15
18
23
27
10
3
35
9
16
33
14
13
24
34
11
20
29
8
12
31
26
21
17

> <PUBCHEM_MMFF94_PARTIAL_CHARGES>
33
1 -0.43
12 0.28
13 0.28
14 -0.14
15 -0.14
16 -0.15
17 -0.15
18 -0.15
19 -0.15
2 -0.43
20 -0.15
21 -0.15
22 -0.15
23 -0.15
24 -0.15
25 -0.15
3 -0.7
38 0.15
39 0.15
4 -0.7
40 0.15
41 0.15
42 0.15
43 0.15
44 0.15
45 0.15
46 0.15
47 0.15
5 0.12
6 0.54
7 0.54
8 0.39
9 0.39

> <PUBCHEM_EFFECTIVE_ROTOR_COUNT>
5.2

> <PUBCHEM_PHARMACOPHORE_FEATURES>
5
3 5 10 11 hydrophobe
5 1 3 6 8 12 rings
5 2 4 7 9 13 rings
6 14 16 18 20 22 24 rings
6 15 17 19 21 23 25 rings

> <PUBCHEM_HEAVY_ATOM_COUNT>
25

> <PUBCHEM_ATOM_DEF_STEREO_COUNT>
2

> <PUBCHEM_ATOM_UDEF_STEREO_COUNT>
0

> <PUBCHEM_BOND_DEF_STEREO_COUNT>
0

> <PUBCHEM_BOND_UDEF_STEREO_COUNT>
0

> <PUBCHEM_ISOTOPIC_ATOM_COUNT>
0

> <PUBCHEM_COMPONENT_COUNT>
1

> <PUBCHEM_CACTVS_TAUTO_COUNT>
1

> <PUBCHEM_CONFORMER_ID>
000A522600000001

> <PUBCHEM_MMFF94_ENERGY>
65.5627

> <PUBCHEM_FEATURE_SELFOVERLAP>
25.374

> <PUBCHEM_SHAPE_FINGERPRINT>
107951 10 16662906704507438513
1100329 8 18267022761168819385
114674 6 17977384159234586386
12107183 9 18271263659622683993
12506688 2 18340770467376296729
12539773 59 15897808071800463127
12553582 1 18267303123501132344
12633257 1 18270976639205123835
12788726 201 17915187818687932472
12969540 37 18121780792327701501
13122387 1 17905327325427228382
13140716 1 18342459218346454008
13402501 40 17975127961347775883
13533116 47 17911243033973164387
13631057 29 18411987949353749742
138480 1 15023304794057276835
14081887 123 18339627950710250970
14114211 80 16749909285375050731
14251757 5 18264217924055064718
14659021 117 18193264201278629416
14790565 3 17906455420495103409
14863182 85 17110730514693862253
14866123 147 18269561529560120449
14916288 52 18410575076105176126
14931854 50 18260831470980223934
14950920 106 13326272755228554150
152267 14 18341886420413870806
15352361 1 18411138060444742158
15422964 175 18340479092500339053
15664445 248 17315904740308879861
17859628 97 17688593758170921849
17909252 39 18342469157713679914
19930381 70 18193836170368739523
20681677 274 18413105035618623904
20775438 99 17549212307493720367
20775530 9 18408042935254861079
21279426 13 18335971022750426191
21285901 2 17391890919700248239
23379529 103 18270974436050938494
23559900 14 18049715515063019461
238078 22 18339371777190630452
238918 7 17620749922524724890
3729539 64 18045769101711433343
3737641 26 18193853736626269947
4280585 95 18262508196727487962
463206 1 18334864951769020827
5309563 4 18268716184800670535
6433294 58 18265893755499948795
9709674 26 18337106890527295487
9795274 37 18335697269254689706

> <PUBCHEM_SHAPE_MULTIPOLES>
492.79
8.61
5.45
1.15
2.47
0.22
0.06
-9.37
-1.63
-0.54
1.14
-0.16
0.5
0.49

> <PUBCHEM_SHAPE_SELFOVERLAP>
1080.728

> <PUBCHEM_SHAPE_VOLUME>
267.4

> <PUBCHEM_COORDINATE_TYPE>
2
5
10

$$$$
11269872
  -OEChem-10112310443D

 64 67  0     0  0  0  0  0  0999 V2000
   -0.9208   -0.0821    0.7674 P   0  0  0  0  0  0  0  0  0  0  0  0
    2.5343    1.8560    0.1958 O   0  0  0  0  0  0  0  0  0  0  0  0
    1.8636   -2.9062    0.2355 O   0  0  0  0  0  0  0  0  0  0  0  0
   -1.3776    1.7211    0.8622 C   0  0  0  0  0  0  0  0  0  0  0  0
   -2.6095   -0.7672    0.3831 C   0  0  0  0  0  0  0  0  0  0  0  0
   -0.1207    2.6004    0.8397 C   0  0  0  0  0  0  0  0  0  0  0  0
   -2.3356    2.0981   -0.2750 C   0  0  0  0  0  0  0  0  0  0  0  0
   -2.5036   -2.2004   -0.1536 C   0  0  0  0  0  0  0  0  0  0  0  0
   -3.5135   -0.7066    1.6209 C   0  0  0  0  0  0  0  0  0  0  0  0
   -0.4780    4.0856    0.8723 C   0  0  0  0  0  0  0  0  0  0  0  0
   -2.6871    3.5846   -0.2395 C   0  0  0  0  0  0  0  0  0  0  0  0
   -3.8830   -2.7951   -0.4330 C   0  0  0  0  0  0  0  0  0  0  0  0
   -4.8903   -1.3053    1.3370 C   0  0  0  0  0  0  0  0  0  0  0  0
   -1.4370    4.4590   -0.2539 C   0  0  0  0  0  0  0  0  0  0  0  0
   -4.7847   -2.7276    0.7957 C   0  0  0  0  0  0  0  0  0  0  0  0
   -0.0798   -0.2128   -0.8446 C   0  0  0  0  0  0  0  0  0  0  0  0
    1.3012   -0.4083   -0.9738 C   0  0  0  0  0  0  0  0  0  0  0  0
   -0.8670   -0.1110   -1.9976 C   0  0  0  0  0  0  0  0  0  0  0  0
    2.1743   -0.5220    0.1807 C   0  0  0  0  0  0  0  0  0  0  0  0
    1.8850   -0.5006   -2.2374 C   0  0  0  0  0  0  0  0  0  0  0  0
   -0.2832   -0.2035   -3.2611 C   0  0  0  0  0  0  0  0  0  0  0  0
    1.0927   -0.3982   -3.3809 C   0  0  0  0  0  0  0  0  0  0  0  0
    2.7617    0.6198    0.7252 C   0  0  0  0  0  0  0  0  0  0  0  0
    2.4241   -1.7725    0.7458 C   0  0  0  0  0  0  0  0  0  0  0  0
    3.5995    0.5111    1.8351 C   0  0  0  0  0  0  0  0  0  0  0  0
    3.2621   -1.8810    1.8557 C   0  0  0  0  0  0  0  0  0  0  0  0
    3.8496   -0.7391    2.4004 C   0  0  0  0  0  0  0  0  0  0  0  0
    3.4256    2.2957   -0.8261 C   0  0  0  0  0  0  0  0  0  0  0  0
    2.5976   -3.5917   -0.7761 C   0  0  0  0  0  0  0  0  0  0  0  0
   -1.8880    1.8795    1.8201 H   0  0  0  0  0  0  0  0  0  0  0  0
   -3.1294   -0.2354   -0.4096 H   0  0  0  0  0  0  0  0  0  0  0  0
    0.5381    2.3655    1.6819 H   0  0  0  0  0  0  0  0  0  0  0  0
    0.4038    2.4378   -0.1038 H   0  0  0  0  0  0  0  0  0  0  0  0
   -1.9094    1.9391   -1.2628 H   0  0  0  0  0  0  0  0  0  0  0  0
   -3.3040    1.6033   -0.2076 H   0  0  0  0  0  0  0  0  0  0  0  0
   -1.9179   -2.2768   -1.0734 H   0  0  0  0  0  0  0  0  0  0  0  0
   -1.9923   -2.8375    0.5817 H   0  0  0  0  0  0  0  0  0  0  0  0
   -3.0546   -1.2532    2.4558 H   0  0  0  0  0  0  0  0  0  0  0  0
   -3.6511    0.3258    1.9622 H   0  0  0  0  0  0  0  0  0  0  0  0
   -0.9358    4.3293    1.8389 H   0  0  0  0  0  0  0  0  0  0  0  0
    0.4357    4.6852    0.7903 H   0  0  0  0  0  0  0  0  0  0  0  0
   -3.3220    3.8372   -1.0967 H   0  0  0  0  0  0  0  0  0  0  0  0
   -3.2712    3.8007    0.6640 H   0  0  0  0  0  0  0  0  0  0  0  0
   -4.3534   -2.2549   -1.2639 H   0  0  0  0  0  0  0  0  0  0  0  0
   -3.7759   -3.8384   -0.7513 H   0  0  0  0  0  0  0  0  0  0  0  0
   -5.4198   -0.6757    0.6112 H   0  0  0  0  0  0  0  0  0  0  0  0
   -5.4882   -1.3049    2.2554 H   0  0  0  0  0  0  0  0  0  0  0  0
   -0.9269    4.3512   -1.2191 H   0  0  0  0  0  0  0  0  0  0  0  0
   -1.7231    5.5126   -0.1600 H   0  0  0  0  0  0  0  0  0  0  0  0
   -4.3866   -3.3867    1.5771 H   0  0  0  0  0  0  0  0  0  0  0  0
   -5.7832   -3.1006    0.5412 H   0  0  0  0  0  0  0  0  0  0  0  0
   -1.9422    0.0095   -2.0030 H   0  0  0  0  0  0  0  0  0  0  0  0
    2.9555   -0.6527   -2.3545 H   0  0  0  0  0  0  0  0  0  0  0  0
   -0.8997   -0.1307   -4.1523 H   0  0  0  0  0  0  0  0  0  0  0  0
    1.5470   -0.4716   -4.3646 H   0  0  0  0  0  0  0  0  0  0  0  0
    4.0598    1.3963    2.2658 H   0  0  0  0  0  0  0  0  0  0  0  0
    3.4612   -2.8515    2.3021 H   0  0  0  0  0  0  0  0  0  0  0  0
    4.5014   -0.8236    3.2650 H   0  0  0  0  0  0  0  0  0  0  0  0
    4.1380    3.0034   -0.3924 H   0  0  0  0  0  0  0  0  0  0  0  0
    2.8431    2.8105   -1.5951 H   0  0  0  0  0  0  0  0  0  0  0  0
    3.9771    1.4710   -1.2897 H   0  0  0  0  0  0  0  0  0  0  0  0
    3.0896   -4.4600   -0.3283 H   0  0  0  0  0  0  0  0  0  0  0  0
    3.3532   -2.9583   -1.2526 H   0  0  0  0  0  0  0  0  0  0  0  0
    1.8947   -3.9403   -1.5378 H   0  0  0  0  0  0  0  0  0  0  0  0
  1  4  1  0  0  0  0
  1  5  1  0  0  0  0
  1 16  1  0  0  0  0
  2 23  1  0  0  0  0
  2 28  1  0  0  0  0
  3 24  1  0  0  0  0
  3 29  1  0  0  0  0
  4  6  1  0  0  0  0
  4  7  1  0  0  0  0
  4 30  1  0  0  0  0
  5  8  1  0  0  0  0
  5  9  1  0  0  0  0
  5 31  1  0  0  0  0
  6 10  1  0  0  0  0
  6 32  1  0  0  0  0
  6 33  1  0  0  0  0
  7 11  1  0  0  0  0
  7 34  1  0  0  0  0
  7 35  1  0  0  0  0
  8 12  1  0  0  0  0
  8 36  1  0  0  0  0
  8 37  1  0  0  0  0
  9 13  1  0  0  0  0
  9 38  1  0  0  0  0
  9 39  1  0  0  0  0
 10 14  1  0  0  0  0
 10 40  1  0  0  0  0
 10 41  1  0  0  0  0
 11 14  1  0  0  0  0
 11 42  1  0  0  0  0
 11 43  1  0  0  0  0
 12 15  1  0  0  0  0
 12 44  1  0  0  0  0
 12 45  1  0  0  0  0
 13 15  1  0  0  0  0
 13 46  1  0  0  0  0
 13 47  1  0  0  0  0
 14 48  1  0  0  0  0
 14 49  1  0  0  0  0
 15 50  1  0  0  0  0
 15 51  1  0  0  0  0
 16 17  1  0  0  0  0
 16 18  2  0  0  0  0
 17 19  1  0  0  0  0
 17 20  2  0  0  0  0
 18 21  1  0  0  0  0
 18 52  1  0  0  0  0
 19 23  2  0  0  0  0
 19 24  1  0  0  0  0
 20 22  1  0  0  0  0
 20 53  1  0  0  0  0
 21 22  2  0  0  0  0
 21 54  1  0  0  0  0
 22 55  1  0  0  0  0
 23 25  1  0  0  0  0
 24 26  2  0  0  0  0
 25 27  2  0  0  0  0
 25 56  1  0  0  0  0
 26 27  1  0  0  0  0
 26 57  1  0  0  0  0
 27 58  1  0  0  0  0
 28 59  1  0  0  0  0
 28 60  1  0  0  0  0
 28 61  1  0  0  0  0
 29 62  1  0  0  0  0
 29 63  1  0  0  0  0
 29 64  1  0  0  0  0
M  END
> <PUBCHEM_COMPOUND_CID>
11269872

> <PUBCHEM_CONFORMER_RMSD>
1

> <PUBCHEM_CONFORMER_DIVERSEORDER>
1
5
6
2
3
4

> <PUBCHEM_MMFF94_PARTIAL_CHARGES>
24
1 -0.35
16 0.01
18 -0.15
2 -0.36
20 -0.15
21 -0.15
22 -0.15
23 0.08
24 0.08
25 -0.15
26 -0.15
27 -0.15
28 0.28
29 0.28
3 -0.36
4 0.17
5 0.17
52 0.15
53 0.15
54 0.15
55 0.15
56 0.15
57 0.15
58 0.15

> <PUBCHEM_EFFECTIVE_ROTOR_COUNT>
8.4

> <PUBCHEM_PHARMACOPHORE_FEATURES>
6
1 2 acceptor
1 3 acceptor
6 16 17 18 20 21 22 rings
6 19 23 24 25 26 27 rings
6 4 6 7 10 11 14 rings
6 5 8 9 12 13 15 rings

> <PUBCHEM_HEAVY_ATOM_COUNT>
29

> <PUBCHEM_ATOM_DEF_STEREO_COUNT>
0

> <PUBCHEM_ATOM_UDEF_STEREO_COUNT>
0

> <PUBCHEM_BOND_DEF_STEREO_COUNT>
0

> <PUBCHEM_BOND_UDEF_STEREO_COUNT>
0

> <PUBCHEM_ISOTOPIC_ATOM_COUNT>
0

> <PUBCHEM_COMPONENT_COUNT>
1

> <PUBCHEM_CACTVS_TAUTO_COUNT>
1

> <PUBCHEM_CONFORMER_ID>
00ABF6F000000001

> <PUBCHEM_MMFF94_ENERGY>
108.074

> <PUBCHEM_FEATURE_SELFOVERLAP>
30.449

> <PUBCHEM_SHAPE_FINGERPRINT>
10032420 55 18189330350143193384
10871710 139 17697838744501804784
11421498 54 17754216168380948655
11578080 2 17823119263854557397
11582403 64 17050451507408555349
12160290 23 18047216084767910321
12422481 6 17775283889084459569
12553582 1 18338523048777491171
12633046 712 18048872992946130150
12788726 201 18188225216576592299
13009979 54 17894924992156386739
13583140 156 17986940869801335274
13692114 37 17977107860827974593
13965767 371 17131829884805973546
14178342 30 18191572078458568554
14223421 5 18340485577990087802
14787075 74 17974296722125550132
15219462 58 18268980991246409766
15439362 3 17329439848843588353
15664445 248 18124620788070816349
17818456 19 18117006472949450715
17974551 9 17766254506387295786
19315092 285 17387107927606277032
21033648 29 17469877792951633840
21421861 104 18334588953017491875
21756936 100 17698992209719230360
23419403 2 17609455609760417373
23559900 14 18269001894467000279
25222932 49 17906180899075713323
3493558 16 17822831161379578925
35225 105 18121517755898838941
376196 1 13699258139304887751
3797600 57 18341336707601785780
469060 322 17698966829887266919
484985 159 17030749371767727194
57527293 21 17988639726787660299
57527306 92 17841725302578002716
6442390 28 15266500793127795038
9841814 1 18122363512648569627

> <PUBCHEM_SHAPE_MULTIPOLES>
588.92
7.41
4.87
2.58
3.77
4.07
2.02
-5.11
-4.36
2.63
-0.53
-1.66
-0.74
0.21

> <PUBCHEM_SHAPE_SELFOVERLAP>
1228.029

> <PUBCHEM_SHAPE_VOLUME>
333.9

> <PUBCHEM_COORDINATE_TYPE>
2
5
10

$$$$
2734217
  -OEChem-10112310443D

 64 67  0     0  0  0  0  0  0999 V2000
   -0.7320   -0.0187    0.7389 P   0  0  0  0  0  0  0  0  0  0  0  0
    2.7216   -2.0208    0.1231 N   0  0  0  0  0  0  0  0  0  0  0  0
   -2.1827   -1.1346    0.3939 C   0  0  0  0  0  0  0  0  0  0  0  0
   -1.6566    1.5933    0.8634 C   0  0  0  0  0  0  0  0  0  0  0  0
   -1.7084   -2.4846   -0.1593 C   0  0  0  0  0  0  0  0  0  0  0  0
   -3.0336   -1.3234    1.6562 C   0  0  0  0  0  0  0  0  0  0  0  0
   -0.6856    2.7800    0.8154 C   0  0  0  0  0  0  0  0  0  0  0  0
   -2.7130    1.6991   -0.2438 C   0  0  0  0  0  0  0  0  0  0  0  0
   -2.8829   -3.4299   -0.4070 C   0  0  0  0  0  0  0  0  0  0  0  0
   -4.2046   -2.2718    1.4038 C   0  0  0  0  0  0  0  0  0  0  0  0
   -1.4302    4.1130    0.8719 C   0  0  0  0  0  0  0  0  0  0  0  0
   -3.4523    3.0349   -0.1846 C   0  0  0  0  0  0  0  0  0  0  0  0
   -3.7338   -3.6114    0.8462 C   0  0  0  0  0  0  0  0  0  0  0  0
   -2.4863    4.2150   -0.2243 C   0  0  0  0  0  0  0  0  0  0  0  0
    0.0666    0.0862   -0.8963 C   0  0  0  0  0  0  0  0  0  0  0  0
    1.4444    0.2726   -1.0647 C   0  0  0  0  0  0  0  0  0  0  0  0
   -0.7514   -0.0267   -2.0265 C   0  0  0  0  0  0  0  0  0  0  0  0
    2.3484    0.3972    0.0647 C   0  0  0  0  0  0  0  0  0  0  0  0
    1.9950    0.3451   -2.3443 C   0  0  0  0  0  0  0  0  0  0  0  0
   -0.2008    0.0456   -3.3062 C   0  0  0  0  0  0  0  0  0  0  0  0
    1.1723    0.2316   -3.4650 C   0  0  0  0  0  0  0  0  0  0  0  0
    2.9585   -0.7221    0.6287 C   0  0  0  0  0  0  0  0  0  0  0  0
    2.6002    1.6667    0.5826 C   0  0  0  0  0  0  0  0  0  0  0  0
    3.8225   -0.5716    1.7135 C   0  0  0  0  0  0  0  0  0  0  0  0
    3.4642    1.8172    1.6674 C   0  0  0  0  0  0  0  0  0  0  0  0
    4.0752    0.6982    2.2328 C   0  0  0  0  0  0  0  0  0  0  0  0
    2.1488   -3.0428    0.9735 C   0  0  0  0  0  0  0  0  0  0  0  0
    3.0364   -2.3372   -1.2542 C   0  0  0  0  0  0  0  0  0  0  0  0
   -2.8494   -0.7619   -0.3794 H   0  0  0  0  0  0  0  0  0  0  0  0
   -2.1632    1.6055    1.8363 H   0  0  0  0  0  0  0  0  0  0  0  0
   -1.0260   -2.9618    0.5575 H   0  0  0  0  0  0  0  0  0  0  0  0
   -1.1484   -2.3987   -1.0940 H   0  0  0  0  0  0  0  0  0  0  0  0
   -3.4354   -0.3674    2.0110 H   0  0  0  0  0  0  0  0  0  0  0  0
   -2.4201   -1.7270    2.4730 H   0  0  0  0  0  0  0  0  0  0  0  0
   -0.1039    2.7694   -0.1130 H   0  0  0  0  0  0  0  0  0  0  0  0
    0.0228    2.7320    1.6508 H   0  0  0  0  0  0  0  0  0  0  0  0
   -3.5090    0.9605   -0.1554 H   0  0  0  0  0  0  0  0  0  0  0  0
   -2.2876    1.6637   -1.2440 H   0  0  0  0  0  0  0  0  0  0  0  0
   -2.5066   -4.4046   -0.7379 H   0  0  0  0  0  0  0  0  0  0  0  0
   -3.5053   -3.0358   -1.2197 H   0  0  0  0  0  0  0  0  0  0  0  0
   -4.9053   -1.8077    0.6986 H   0  0  0  0  0  0  0  0  0  0  0  0
   -4.7538   -2.4350    2.3380 H   0  0  0  0  0  0  0  0  0  0  0  0
   -0.7160    4.9383    0.7731 H   0  0  0  0  0  0  0  0  0  0  0  0
   -1.9098    4.2212    1.8525 H   0  0  0  0  0  0  0  0  0  0  0  0
   -4.0470    3.0831    0.7363 H   0  0  0  0  0  0  0  0  0  0  0  0
   -4.1560    3.1079   -1.0219 H   0  0  0  0  0  0  0  0  0  0  0  0
   -4.6009   -4.2403    0.6153 H   0  0  0  0  0  0  0  0  0  0  0  0
   -3.1500   -4.1396    1.6101 H   0  0  0  0  0  0  0  0  0  0  0  0
   -3.0438    5.1518   -0.1130 H   0  0  0  0  0  0  0  0  0  0  0  0
   -1.9934    4.2508   -1.2037 H   0  0  0  0  0  0  0  0  0  0  0  0
   -1.8187   -0.2021   -2.0017 H   0  0  0  0  0  0  0  0  0  0  0  0
    3.0607    0.5039   -2.4923 H   0  0  0  0  0  0  0  0  0  0  0  0
   -0.8395   -0.0489   -4.1797 H   0  0  0  0  0  0  0  0  0  0  0  0
    1.6007    0.2895   -4.4614 H   0  0  0  0  0  0  0  0  0  0  0  0
    2.1589    2.5557    0.1414 H   0  0  0  0  0  0  0  0  0  0  0  0
    4.3121   -1.4319    2.1627 H   0  0  0  0  0  0  0  0  0  0  0  0
    3.6661    2.8065    2.0676 H   0  0  0  0  0  0  0  0  0  0  0  0
    4.7500    0.8159    3.0757 H   0  0  0  0  0  0  0  0  0  0  0  0
    1.6681   -3.8262    0.3774 H   0  0  0  0  0  0  0  0  0  0  0  0
    1.3869   -2.6262    1.6410 H   0  0  0  0  0  0  0  0  0  0  0  0
    2.9264   -3.5134    1.5839 H   0  0  0  0  0  0  0  0  0  0  0  0
    3.7836   -1.6603   -1.6807 H   0  0  0  0  0  0  0  0  0  0  0  0
    2.1355   -2.3583   -1.8735 H   0  0  0  0  0  0  0  0  0  0  0  0
    3.4760   -3.3406   -1.3075 H   0  0  0  0  0  0  0  0  0  0  0  0
  1  3  1  0  0  0  0
  1  4  1  0  0  0  0
  1 15  1  0  0  0  0
  2 22  1  0  0  0  0
  2 27  1  0  0  0  0
  2 28  1  0  0  0  0
  3  5  1  0  0  0  0
  3  6  1  0  0  0  0
  3 29  1  0  0  0  0
  4  7  1  0  0  0  0
  4  8  1  0  0  0  0
  4 30  1  0  0  0  0
  5  9  1  0  0  0  0
  5 31  1  0  0  0  0
  5 32  1  0  0  0  0
  6 10  1  0  0  0  0
  6 33  1  0  0  0  0
  6 34  1  0  0  0  0
  7 11  1  0  0  0  0
  7 35  1  0  0  0  0
  7 36  1  0  0  0  0
  8 12  1  0  0  0  0
  8 37  1  0  0  0  0
  8 38  1  0  0  0  0
  9 13  1  0  0  0  0
  9 39  1  0  0  0  0
  9 40  1  0  0  0  0
 10 13  1  0  0  0  0
 10 41  1  0  0  0  0
 10 42  1  0  0  0  0
 11 14  1  0  0  0  0
 11 43  1  0  0  0  0
 11 44  1  0  0  0  0
 12 14  1  0  0  0  0
 12 45  1  0  0  0  0
 12 46  1  0  0  0  0
 13 47  1  0  0  0  0
 13 48  1  0  0  0  0
 14 49  1  0  0  0  0
 14 50  1  0  0  0  0
 15 16  1  0  0  0  0
 15 17  2  0  0  0  0
 16 18  1  0  0  0  0
 16 19  2  0  0  0  0
 17 20  1  0  0  0  0
 17 51  1  0  0  0  0
 18 22  1  0  0  0  0
 18 23  2  0  0  0  0
 19 21  1  0  0  0  0
 19 52  1  0  0  0  0
 20 21  2  0  0  0  0
 20 53  1  0  0  0  0
 21 54  1  0  0  0  0
 22 24  2  0  0  0  0
 23 25  1  0  0  0  0
 23 55  1  0  0  0  0
 24 26  1  0  0  0  0
 24 56  1  0  0  0  0
 25 26  2  0  0  0  0
 25 57  1  0  0  0  0
 26 58  1  0  0  0  0
 27 59  1  0  0  0  0
 27 60  1  0  0  0  0
 27 61  1  0  0  0  0
 28 62  1  0  0  0  0
 28 63  1  0  0  0  0
 28 64  1  0  0  0  0
M  END
> <PUBCHEM_COMPOUND_CID>
2734217

> <PUBCHEM_CONFORMER_RMSD>
0.8

> <PUBCHEM_CONFORMER_DIVERSEORDER>
1
9
6
7
8
4
5
2
3

> <PUBCHEM_MMFF94_PARTIAL_CHARGES>
24
1 -0.35
15 0.01
17 -0.15
19 -0.15
2 -0.84
20 -0.15
21 -0.15
22 0.1
23 -0.15
24 -0.15
25 -0.15
26 -0.15
27 0.37
28 0.37
3 0.17
4 0.17
51 0.15
52 0.15
53 0.15
54 0.15
55 0.15
56 0.15
57 0.15
58 0.15

> <PUBCHEM_EFFECTIVE_ROTOR_COUNT>
7.4

> <PUBCHEM_PHARMACOPHORE_FEATURES>
5
1 2 cation
6 15 16 17 19 20 21 rings
6 18 22 23 24 25 26 rings
6 3 5 6 9 10 13 rings
6 4 7 8 11 12 14 rings

> <PUBCHEM_HEAVY_ATOM_COUNT>
28

> <PUBCHEM_ATOM_DEF_STEREO_COUNT>
0

> <PUBCHEM_ATOM_UDEF_STEREO_COUNT>
0

> <PUBCHEM_BOND_DEF_STEREO_COUNT>
0

> <PUBCHEM_BOND_UDEF_STEREO_COUNT>
0

> <PUBCHEM_ISOTOPIC_ATOM_COUNT>
0

> <PUBCHEM_COMPONENT_COUNT>
1

> <PUBCHEM_CACTVS_TAUTO_COUNT>
1

> <PUBCHEM_CONFORMER_ID>
0029B88900000001

> <PUBCHEM_MMFF94_ENERGY>
102.2927

> <PUBCHEM_FEATURE_SELFOVERLAP>
25.374

> <PUBCHEM_SHAPE_FINGERPRINT>
11421498 54 17537197921933718271
11578080 2 18338248084839260900
11582403 64 17483929628716037093
11725454 13 17630023984924266929
11828532 37 17899963127304960031
12160290 23 18190485812826450873
12403259 327 18052535474371800298
12422481 6 17898316934784956385
12553582 1 18121513598407673107
12633046 712 18265608798180324902
12788726 201 18115606944533239243
12930653 34 18340475738499379858
13009979 54 17895202141900485803
133893 2 15481832247267262300
13583140 156 18130780144967096074
13692114 37 18192998115692389177
13965767 371 17060064816758678498
14022347 108 17906775649035104619
14178342 30 18261664896751863482
14223421 5 18342457049720454538
15219462 58 18341039740741102142
15664445 248 17907888410399261253
17818456 19 18261403196094727075
17974551 9 17982714304059273226
17980427 26 17403427712261982476
18603816 31 14642123075699964664
20600515 1 17838913868139838451
20626108 58 17025983323478636611
21033648 29 17828194398721986940
21421861 104 18117574018048211809
21756936 100 17769641329473260168
23419403 2 17394970646757120013
23559900 14 18339938051158608156
35225 105 18266480731869383893
376196 1 17413281608437758000
392239 28 17907275991271001168
463206 1 17899980727210702299
469060 322 17484487351630604798
57527293 21 17844813778809856226
5845 1 12673870727670042852
9841814 1 17761796339419776515
9981440 41 17555690487969078416

> <PUBCHEM_SHAPE_MULTIPOLES>
575.1
7.06
4.98
2.66
0.62
1.92
-2.53
-2.81
4.24
-5.86
1.48
1.77
-0.03
1.29

> <PUBCHEM_SHAPE_SELFOVERLAP>
1195.69

> <PUBCHEM_SHAPE_VOLUME>
327.4

> <PUBCHEM_COORDINATE_TYPE>
2
5
10

$$$$
25112535
  -OEChem-10112310443D

 91 94  0     0  0  0  0  0  0999 V2000
   -1.2479   -0.3367    0.8097 P   0  0  0  0  0  0  0  0  0  0  0  0
   -3.2028    0.3140   -1.4118 O   0  0  0  0  0  0  0  0  0  0  0  0
    1.9946    1.4595   -2.8657 O   0  0  0  0  0  0  0  0  0  0  0  0
   -2.0527   -1.9568    0.3748 C   0  0  0  0  0  0  0  0  0  0  0  0
   -2.7779    0.5985    1.3053 C   0  0  0  0  0  0  0  0  0  0  0  0
   -1.3674   -2.6049   -0.8403 C   0  0  0  0  0  0  0  0  0  0  0  0
   -2.0708   -2.9077    1.5730 C   0  0  0  0  0  0  0  0  0  0  0  0
   -3.0255    0.4890    2.8196 C   0  0  0  0  0  0  0  0  0  0  0  0
   -2.7043    2.0604    0.8604 C   0  0  0  0  0  0  0  0  0  0  0  0
   -1.5433   -4.1261   -0.8989 C   0  0  0  0  0  0  0  0  0  0  0  0
   -2.8469   -4.1920    1.2638 C   0  0  0  0  0  0  0  0  0  0  0  0
   -3.8539    1.6470    3.3864 C   0  0  0  0  0  0  0  0  0  0  0  0
   -4.0122    2.8051    1.1471 C   0  0  0  0  0  0  0  0  0  0  0  0
   -2.8245   -4.5810   -0.2152 C   0  0  0  0  0  0  0  0  0  0  0  0
   -4.7850    2.2487    2.3438 C   0  0  0  0  0  0  0  0  0  0  0  0
   -0.8567    0.3486   -0.8335 C   0  0  0  0  0  0  0  0  0  0  0  0
    0.4559    0.6396   -1.2049 C   0  0  0  0  0  0  0  0  0  0  0  0
   -1.9023    0.5816   -1.7269 C   0  0  0  0  0  0  0  0  0  0  0  0
    1.5759    0.4115   -0.3039 C   0  0  0  0  0  0  0  0  0  0  0  0
    0.7229    1.1637   -2.4697 C   0  0  0  0  0  0  0  0  0  0  0  0
    1.9885    1.4213    0.5654 C   0  0  0  0  0  0  0  0  0  0  0  0
    2.2368   -0.8168   -0.3099 C   0  0  0  0  0  0  0  0  0  0  0  0
   -1.6352    1.1057   -2.9917 C   0  0  0  0  0  0  0  0  0  0  0  0
   -0.3226    1.3968   -3.3631 C   0  0  0  0  0  0  0  0  0  0  0  0
    1.3066    2.7518    0.6025 C   0  0  0  0  0  0  0  0  0  0  0  0
    1.8254   -1.9247   -1.2263 C   0  0  0  0  0  0  0  0  0  0  0  0
    3.0621    1.2029    1.4286 C   0  0  0  0  0  0  0  0  0  0  0  0
    3.3104   -1.0353    0.5535 C   0  0  0  0  0  0  0  0  0  0  0  0
    3.7230   -0.0255    1.4227 C   0  0  0  0  0  0  0  0  0  0  0  0
    4.8705   -0.2594    2.3461 C   0  0  0  0  0  0  0  0  0  0  0  0
    2.2499    3.9035    0.2127 C   0  0  0  0  0  0  0  0  0  0  0  0
    0.6612    3.0402    1.9693 C   0  0  0  0  0  0  0  0  0  0  0  0
    1.3505   -3.1717   -0.4598 C   0  0  0  0  0  0  0  0  0  0  0  0
    2.9389   -2.3084   -2.2168 C   0  0  0  0  0  0  0  0  0  0  0  0
   -4.1801    0.5956   -2.4101 C   0  0  0  0  0  0  0  0  0  0  0  0
    6.1862   -0.5328    1.5929 C   0  0  0  0  0  0  0  0  0  0  0  0
    4.5972   -1.3959    3.3495 C   0  0  0  0  0  0  0  0  0  0  0  0
    2.1555    1.9906   -4.1786 C   0  0  0  0  0  0  0  0  0  0  0  0
   -3.0966   -1.7680    0.0969 H   0  0  0  0  0  0  0  0  0  0  0  0
   -3.6585    0.1533    0.8307 H   0  0  0  0  0  0  0  0  0  0  0  0
   -0.4401   -2.2089   -1.1409 H   0  0  0  0  0  0  0  0  0  0  0  0
   -1.9803   -2.2662   -1.6944 H   0  0  0  0  0  0  0  0  0  0  0  0
   -2.5139   -2.4390    2.4587 H   0  0  0  0  0  0  0  0  0  0  0  0
   -1.0454   -3.1732    1.8610 H   0  0  0  0  0  0  0  0  0  0  0  0
   -2.0874    0.4346    3.3868 H   0  0  0  0  0  0  0  0  0  0  0  0
   -3.5536   -0.4512    3.0238 H   0  0  0  0  0  0  0  0  0  0  0  0
   -2.4428    2.2815   -0.1701 H   0  0  0  0  0  0  0  0  0  0  0  0
   -1.9271    2.5590    1.4479 H   0  0  0  0  0  0  0  0  0  0  0  0
   -0.7326   -4.6464   -0.3829 H   0  0  0  0  0  0  0  0  0  0  0  0
   -1.5300   -4.4630   -1.9416 H   0  0  0  0  0  0  0  0  0  0  0  0
   -3.8909   -4.0797    1.5807 H   0  0  0  0  0  0  0  0  0  0  0  0
   -2.4307   -5.0071    1.8683 H   0  0  0  0  0  0  0  0  0  0  0  0
   -3.1771    2.4282    3.7554 H   0  0  0  0  0  0  0  0  0  0  0  0
   -4.4279    1.2985    4.2525 H   0  0  0  0  0  0  0  0  0  0  0  0
   -4.6615    2.7666    0.2638 H   0  0  0  0  0  0  0  0  0  0  0  0
   -3.7846    3.8651    1.3149 H   0  0  0  0  0  0  0  0  0  0  0  0
   -3.6847   -4.1280   -0.7242 H   0  0  0  0  0  0  0  0  0  0  0  0
   -2.9440   -5.6662   -0.3116 H   0  0  0  0  0  0  0  0  0  0  0  0
   -5.4857    1.4778    1.9990 H   0  0  0  0  0  0  0  0  0  0  0  0
   -5.3928    3.0438    2.7903 H   0  0  0  0  0  0  0  0  0  0  0  0
   -2.3873    1.3162   -3.7436 H   0  0  0  0  0  0  0  0  0  0  0  0
   -0.1961    1.8011   -4.3613 H   0  0  0  0  0  0  0  0  0  0  0  0
    0.4834    2.8018   -0.1158 H   0  0  0  0  0  0  0  0  0  0  0  0
    1.0541   -1.5879   -1.9171 H   0  0  0  0  0  0  0  0  0  0  0  0
    3.3891    1.9835    2.1106 H   0  0  0  0  0  0  0  0  0  0  0  0
    3.8275   -1.9909    0.5528 H   0  0  0  0  0  0  0  0  0  0  0  0
    5.0373    0.6479    2.9427 H   0  0  0  0  0  0  0  0  0  0  0  0
    3.0666    4.0310    0.9311 H   0  0  0  0  0  0  0  0  0  0  0  0
    1.6998    4.8498    0.1664 H   0  0  0  0  0  0  0  0  0  0  0  0
    2.6944    3.7256   -0.7729 H   0  0  0  0  0  0  0  0  0  0  0  0
    1.4184    3.2438    2.7352 H   0  0  0  0  0  0  0  0  0  0  0  0
    0.0678    2.1935    2.3246 H   0  0  0  0  0  0  0  0  0  0  0  0
    0.0149    3.9226    1.9112 H   0  0  0  0  0  0  0  0  0  0  0  0
    2.2199   -3.6624    0.0012 H   0  0  0  0  0  0  0  0  0  0  0  0
    0.9752   -3.9177   -1.1617 H   0  0  0  0  0  0  0  0  0  0  0  0
    0.7012   -2.9599    0.3884 H   0  0  0  0  0  0  0  0  0  0  0  0
    3.8103   -2.7393   -1.7121 H   0  0  0  0  0  0  0  0  0  0  0  0
    3.2809   -1.4324   -2.7798 H   0  0  0  0  0  0  0  0  0  0  0  0
    2.5750   -3.0492   -2.9375 H   0  0  0  0  0  0  0  0  0  0  0  0
   -5.1531    0.3232   -1.9874 H   0  0  0  0  0  0  0  0  0  0  0  0
   -4.0423   -0.0256   -3.3018 H   0  0  0  0  0  0  0  0  0  0  0  0
   -4.2295    1.6654   -2.6408 H   0  0  0  0  0  0  0  0  0  0  0  0
    6.1468   -1.4688    1.0253 H   0  0  0  0  0  0  0  0  0  0  0  0
    7.0230   -0.6045    2.2961 H   0  0  0  0  0  0  0  0  0  0  0  0
    6.4068    0.2774    0.8890 H   0  0  0  0  0  0  0  0  0  0  0  0
    4.4946   -2.3663    2.8519 H   0  0  0  0  0  0  0  0  0  0  0  0
    3.6743   -1.2067    3.9091 H   0  0  0  0  0  0  0  0  0  0  0  0
    5.4175   -1.4763    4.0708 H   0  0  0  0  0  0  0  0  0  0  0  0
    3.2267    2.1660   -4.3236 H   0  0  0  0  0  0  0  0  0  0  0  0
    1.6606    2.9619   -4.2867 H   0  0  0  0  0  0  0  0  0  0  0  0
    1.8480    1.2729   -4.9469 H   0  0  0  0  0  0  0  0  0  0  0  0
  1  4  1  0  0  0  0
  1  5  1  0  0  0  0
  1 16  1  0  0  0  0
  2 18  1  0  0  0  0
  2 35  1  0  0  0  0
  3 20  1  0  0  0  0
  3 38  1  0  0  0  0
  4  6  1  0  0  0  0
  4  7  1  0  0  0  0
  4 39  1  0  0  0  0
  5  8  1  0  0  0  0
  5  9  1  0  0  0  0
  5 40  1  0  0  0  0
  6 10  1  0  0  0  0
  6 41  1  0  0  0  0
  6 42  1  0  0  0  0
  7 11  1  0  0  0  0
  7 43  1  0  0  0  0
  7 44  1  0  0  0  0
  8 12  1  0  0  0  0
  8 45  1  0  0  0  0
  8 46  1  0  0  0  0
  9 13  1  0  0  0  0
  9 47  1  0  0  0  0
  9 48  1  0  0  0  0
 10 14  1  0  0  0  0
 10 49  1  0  0  0  0
 10 50  1  0  0  0  0
 11 14  1  0  0  0  0
 11 51  1  0  0  0  0
 11 52  1  0  0  0  0
 12 15  1  0  0  0  0
 12 53  1  0  0  0  0
 12 54  1  0  0  0  0
 13 15  1  0  0  0  0
 13 55  1  0  0  0  0
 13 56  1  0  0  0  0
 14 57  1  0  0  0  0
 14 58  1  0  0  0  0
 15 59  1  0  0  0  0
 15 60  1  0  0  0  0
 16 17  1  0  0  0  0
 16 18  2  0  0  0  0
 17 19  1  0  0  0  0
 17 20  2  0  0  0  0
 18 23  1  0  0  0  0
 19 21  2  0  0  0  0
 19 22  1  0  0  0  0
 20 24  1  0  0  0  0
 21 25  1  0  0  0  0
 21 27  1  0  0  0  0
 22 26  1  0  0  0  0
 22 28  2  0  0  0  0
 23 24  2  0  0  0  0
 23 61  1  0  0  0  0
 24 62  1  0  0  0  0
 25 31  1  0  0  0  0
 25 32  1  0  0  0  0
 25 63  1  0  0  0  0
 26 33  1  0  0  0  0
 26 34  1  0  0  0  0
 26 64  1  0  0  0  0
 27 29  2  0  0  0  0
 27 65  1  0  0  0  0
 28 29  1  0  0  0  0
 28 66  1  0  0  0  0
 29 30  1  0  0  0  0
 30 36  1  0  0  0  0
 30 37  1  0  0  0  0
 30 67  1  0  0  0  0
 31 68  1  0  0  0  0
 31 69  1  0  0  0  0
 31 70  1  0  0  0  0
 32 71  1  0  0  0  0
 32 72  1  0  0  0  0
 32 73  1  0  0  0  0
 33 74  1  0  0  0  0
 33 75  1  0  0  0  0
 33 76  1  0  0  0  0
 34 77  1  0  0  0  0
 34 78  1  0  0  0  0
 34 79  1  0  0  0  0
 35 80  1  0  0  0  0
 35 81  1  0  0  0  0
 35 82  1  0  0  0  0
 36 83  1  0  0  0  0
 36 84  1  0  0  0  0
 36 85  1  0  0  0  0
 37 86  1  0  0  0  0
 37 87  1  0  0  0  0
 37 88  1  0  0  0  0
 38 89  1  0  0  0  0
 38 90  1  0  0  0  0
 38 91  1  0  0  0  0
M  END
> <PUBCHEM_COMPOUND_CID>
25112535

> <PUBCHEM_CONFORMER_RMSD>
1.2

> <PUBCHEM_CONFORMER_DIVERSEORDER>
1
2

> <PUBCHEM_MMFF94_PARTIAL_CHARGES>
24
1 -0.35
16 0.01
18 0.08
2 -0.36
20 0.08
21 -0.14
22 -0.14
23 -0.15
24 -0.15
25 0.14
26 0.14
27 -0.15
28 -0.15
29 -0.14
3 -0.36
30 0.14
35 0.28
38 0.28
4 0.17
5 0.17
61 0.15
62 0.15
65 0.15
66 0.15

> <PUBCHEM_EFFECTIVE_ROTOR_COUNT>
11.4

> <PUBCHEM_PHARMACOPHORE_FEATURES>
9
1 2 acceptor
1 3 acceptor
3 25 31 32 hydrophobe
3 26 33 34 hydrophobe
3 30 36 37 hydrophobe
6 16 17 18 20 23 24 rings
6 19 21 22 27 28 29 rings
6 4 6 7 10 11 14 rings
6 5 8 9 12 13 15 rings

> <PUBCHEM_HEAVY_ATOM_COUNT>
38

> <PUBCHEM_ATOM_DEF_STEREO_COUNT>
0

> <PUBCHEM_ATOM_UDEF_STEREO_COUNT>
0

> <PUBCHEM_BOND_DEF_STEREO_COUNT>
0

> <PUBCHEM_BOND_UDEF_STEREO_COUNT>
0

> <PUBCHEM_ISOTOPIC_ATOM_COUNT>
0

> <PUBCHEM_COMPONENT_COUNT>
1

> <PUBCHEM_CACTVS_TAUTO_COUNT>
1

> <PUBCHEM_CONFORMER_ID>
017F2FD700000001

> <PUBCHEM_MMFF94_ENERGY>
168.1887

> <PUBCHEM_FEATURE_SELFOVERLAP>
45.673

> <PUBCHEM_SHAPE_FINGERPRINT>
11578080 2 18119804970296935773
12156800 1 17984451721546727092
12608794 3 18339347583477056129
12633257 1 18409161100157420384
13636023 20 17191165992098654837
13692114 37 18269856263460018875
14068700 675 17912614064009996278
15219462 58 18059028296665913479
16114785 44 17910643533342087896
17974551 9 17702955712086336762
18603816 31 16446398648514384938
19315092 285 17762319710833159018
20587220 17 17475785465065684869
21033648 29 18194412082422547849
22223350 30 18267317438501601274
3380486 145 18115012022922459114
35225 105 17983331293665674419
376196 1 16844170022161123761
469060 322 18055326108135644592
57527293 21 18113899360664004770
57527573 199 17561089051407143160
9981440 41 16200425853922874865

> <PUBCHEM_SHAPE_MULTIPOLES>
774.13
8.55
5.01
4.13
4.53
4.27
2.04
-0.72
-7.36
-3.6
-0.87
0.4
-2.22
-1.45

> <PUBCHEM_SHAPE_SELFOVERLAP>
1604.712

> <PUBCHEM_SHAPE_VOLUME>
445.9

> <PUBCHEM_COORDINATE_TYPE>
2
5
10

$$$$
2734555
  -OEChem-10112310443D

 44 45  0     1  0  0  0  0  0999 V2000
    2.1188    0.7477   -0.8458 P   0  0  0  0  0  0  0  0  0  0  0  0
   -2.1022   -0.7144   -0.8656 P   0  0  0  0  0  0  0  0  0  0  0  0
    3.5451   -0.4644   -0.8553 C   0  0  1  0  0  0  0  0  0  0  0  0
    2.2371    1.0259    1.0142 C   0  0  1  0  0  0  0  0  0  0  0  0
   -3.5281    0.4980   -0.8559 C   0  0  1  0  0  0  0  0  0  0  0  0
   -2.2570   -1.0649    0.9794 C   0  0  1  0  0  0  0  0  0  0  0  0
    0.6629   -0.3741   -0.8718 C   0  0  0  0  0  0  0  0  0  0  0  0
   -0.6460    0.4063   -0.8193 C   0  0  0  0  0  0  0  0  0  0  0  0
    3.7154   -0.8987    0.6045 C   0  0  0  0  0  0  0  0  0  0  0  0
    3.5574    0.3686    1.4398 C   0  0  0  0  0  0  0  0  0  0  0  0
   -3.7271    0.8753    0.6161 C   0  0  0  0  0  0  0  0  0  0  0  0
   -3.5855   -0.4238    1.4043 C   0  0  0  0  0  0  0  0  0  0  0  0
    3.3963   -1.6313   -1.8142 C   0  0  0  0  0  0  0  0  0  0  0  0
    2.1906    2.5054    1.3634 C   0  0  0  0  0  0  0  0  0  0  0  0
   -3.3605    1.7013   -1.7654 C   0  0  0  0  0  0  0  0  0  0  0  0
   -2.2172   -2.5569    1.2716 C   0  0  0  0  0  0  0  0  0  0  0  0
    4.4280    0.1165   -1.1516 H   0  0  0  0  0  0  0  0  0  0  0  0
    1.4059    0.5145    1.5128 H   0  0  0  0  0  0  0  0  0  0  0  0
   -4.4048   -0.0705   -1.1921 H   0  0  0  0  0  0  0  0  0  0  0  0
   -1.4350   -0.5751    1.5137 H   0  0  0  0  0  0  0  0  0  0  0  0
    0.6893   -0.9481   -1.8059 H   0  0  0  0  0  0  0  0  0  0  0  0
    0.7187   -1.1020   -0.0544 H   0  0  0  0  0  0  0  0  0  0  0  0
   -0.6847    1.0624    0.0575 H   0  0  0  0  0  0  0  0  0  0  0  0
   -0.6883    1.0590   -1.6992 H   0  0  0  0  0  0  0  0  0  0  0  0
    4.6987   -1.3538    0.7654 H   0  0  0  0  0  0  0  0  0  0  0  0
    2.9594   -1.6391    0.8954 H   0  0  0  0  0  0  0  0  0  0  0  0
    3.5498    0.1374    2.5106 H   0  0  0  0  0  0  0  0  0  0  0  0
    4.4089    1.0381    1.2592 H   0  0  0  0  0  0  0  0  0  0  0  0
   -4.7133    1.3248    0.7754 H   0  0  0  0  0  0  0  0  0  0  0  0
   -2.9765    1.6029    0.9501 H   0  0  0  0  0  0  0  0  0  0  0  0
   -3.5988   -0.2345    2.4833 H   0  0  0  0  0  0  0  0  0  0  0  0
   -4.4331   -1.0851    1.1811 H   0  0  0  0  0  0  0  0  0  0  0  0
    4.3191   -2.2214   -1.8369 H   0  0  0  0  0  0  0  0  0  0  0  0
    2.5885   -2.3095   -1.5202 H   0  0  0  0  0  0  0  0  0  0  0  0
    3.1952   -1.2872   -2.8345 H   0  0  0  0  0  0  0  0  0  0  0  0
    1.2412    2.9544    1.0506 H   0  0  0  0  0  0  0  0  0  0  0  0
    2.2866    2.6469    2.4453 H   0  0  0  0  0  0  0  0  0  0  0  0
    2.9983    3.0661    0.8793 H   0  0  0  0  0  0  0  0  0  0  0  0
   -3.1298    1.3983   -2.7923 H   0  0  0  0  0  0  0  0  0  0  0  0
   -4.2865    2.2864   -1.7905 H   0  0  0  0  0  0  0  0  0  0  0  0
   -2.5667    2.3733   -1.4229 H   0  0  0  0  0  0  0  0  0  0  0  0
   -3.0152   -3.0978    0.7503 H   0  0  0  0  0  0  0  0  0  0  0  0
   -1.2619   -2.9939    0.9600 H   0  0  0  0  0  0  0  0  0  0  0  0
   -2.3344   -2.7404    2.3449 H   0  0  0  0  0  0  0  0  0  0  0  0
  1  3  1  0  0  0  0
  1  4  1  0  0  0  0
  1  7  1  0  0  0  0
  2  5  1  0  0  0  0
  2  6  1  0  0  0  0
  2  8  1  0  0  0  0
  3  9  1  0  0  0  0
  3 13  1  0  0  0  0
  3 17  1  0  0  0  0
  4 10  1  0  0  0  0
  4 14  1  0  0  0  0
  4 18  1  0  0  0  0
  5 11  1  0  0  0  0
  5 15  1  0  0  0  0
  5 19  1  0  0  0  0
  6 12  1  0  0  0  0
  6 16  1  0  0  0  0
  6 20  1  0  0  0  0
  7  8  1  0  0  0  0
  7 21  1  0  0  0  0
  7 22  1  0  0  0  0
  8 23  1  0  0  0  0
  8 24  1  0  0  0  0
  9 10  1  0  0  0  0
  9 25  1  0  0  0  0
  9 26  1  0  0  0  0
 10 27  1  0  0  0  0
 10 28  1  0  0  0  0
 11 12  1  0  0  0  0
 11 29  1  0  0  0  0
 11 30  1  0  0  0  0
 12 31  1  0  0  0  0
 12 32  1  0  0  0  0
 13 33  1  0  0  0  0
 13 34  1  0  0  0  0
 13 35  1  0  0  0  0
 14 36  1  0  0  0  0
 14 37  1  0  0  0  0
 14 38  1  0  0  0  0
 15 39  1  0  0  0  0
 15 40  1  0  0  0  0
 15 41  1  0  0  0  0
 16 42  1  0  0  0  0
 16 43  1  0  0  0  0
 16 44  1  0  0  0  0
M  END
> <PUBCHEM_COMPOUND_CID>
2734555

> <PUBCHEM_CONFORMER_RMSD>
0.6

> <PUBCHEM_CONFORMER_DIVERSEORDER>
1
9
6
8
4
7
3
2
5

> <PUBCHEM_MMFF94_PARTIAL_CHARGES>
8
1 -0.5
2 -0.5
3 0.17
4 0.17
5 0.17
6 0.17
7 0.17
8 0.17

> <PUBCHEM_EFFECTIVE_ROTOR_COUNT>
5

> <PUBCHEM_PHARMACOPHORE_FEATURES>
2
5 1 3 4 9 10 rings
5 2 5 6 11 12 rings

> <PUBCHEM_HEAVY_ATOM_COUNT>
16

> <PUBCHEM_ATOM_DEF_STEREO_COUNT>
4

> <PUBCHEM_ATOM_UDEF_STEREO_COUNT>
0

> <PUBCHEM_BOND_DEF_STEREO_COUNT>
0

> <PUBCHEM_BOND_UDEF_STEREO_COUNT>
0

> <PUBCHEM_ISOTOPIC_ATOM_COUNT>
0

> <PUBCHEM_COMPONENT_COUNT>
1

> <PUBCHEM_CACTVS_TAUTO_COUNT>
1

> <PUBCHEM_CONFORMER_ID>
0029B9DB00000001

> <PUBCHEM_MMFF94_ENERGY>
23.2189

> <PUBCHEM_FEATURE_SELFOVERLAP>
10.149

> <PUBCHEM_SHAPE_FINGERPRINT>
10366900 7 18411982459546658534
10751810 167 17022910029459204349
11640471 11 15698002950332011692
12346177 29 18260258685793995119
12500047 106 18113889447040579075
12633257 1 18411138034637606443
12670545 47 18409165536689610839
128620 24 9223227451081004533
13134695 92 17845940637100970076
13296908 3 18113616828170414317
14251739 40 16702014245373127268
15239191 94 15864068784223420659
15295992 7 18413673504610230745
16752209 62 17385713708508282799
17349148 13 15697997426977676092
18186145 218 17346606282809762750
18915474 69 15430042066970288466
19107657 47 17917988369303109901
192875 21 16486965198429023529
19422 9 15791453712041505390
20281475 54 15863787296404005892
20442098 301 17530965838276990283
20645477 70 17988918964392046758
22169311 14 18410009961493129384
22749437 52 16343981429166274710
23559900 14 18261682548745436933
23598288 3 15213842827710418271
23598291 2 15357700760182815079
23598294 1 17095527275074036437
2838139 119 17058097580700204929
312423 11 15769503122055278935
474 4 17346875676075072502
5161694 15 18411138013141663761
6049 1 18337961185039040093
7615 1 15698283321481015388
9971528 1 17131833123659460892

> <PUBCHEM_SHAPE_MULTIPOLES>
336.97
8.71
2.12
1.93
0.01
0.03
-0.11
0.06
0.42
0.1
0.53
-0.1
-0.03
2.43

> <PUBCHEM_SHAPE_SELFOVERLAP>
618.316

> <PUBCHEM_SHAPE_VOLUME>
214.2

> <PUBCHEM_COORDINATE_TYPE>
2
5
10

$$$$
11158950
  -OEChem-10112310443D

 80 85  0     0  0  0  0  0  0999 V2000
    2.0555   -0.9359   -0.5027 P   0  0  0  0  0  0  0  0  0  0  0  0
   -2.0561   -0.9024    0.5740 P   0  0  0  0  0  0  0  0  0  0  0  0
   -0.9927    2.8301    1.4554 O   0  0  0  0  0  0  0  0  0  0  0  0
    0.9927    2.7234   -1.6429 O   0  0  0  0  0  0  0  0  0  0  0  0
    2.5633    1.3910    4.0401 O   0  0  0  0  0  0  0  0  0  0  0  0
   -2.5629    1.1084   -4.1221 O   0  0  0  0  0  0  0  0  0  0  0  0
    0.7818    2.1048    2.7358 N   0  0  0  0  0  0  0  0  0  0  0  0
   -0.7816    1.9110   -2.8702 N   0  0  0  0  0  0  0  0  0  0  0  0
    0.4063    1.1067    0.5661 C   0  0  0  0  0  0  0  0  0  0  0  0
   -0.4059    1.0651   -0.6367 C   0  0  0  0  0  0  0  0  0  0  0  0
    1.5110    0.2817    0.7462 C   0  0  0  0  0  0  0  0  0  0  0  0
   -1.5104    0.2293   -0.7595 C   0  0  0  0  0  0  0  0  0  0  0  0
    0.0864    1.9932    1.5818 C   0  0  0  0  0  0  0  0  0  0  0  0
   -0.0862    1.8794   -1.7112 C   0  0  0  0  0  0  0  0  0  0  0  0
    2.2516    0.3674    1.9200 C   0  0  0  0  0  0  0  0  0  0  0  0
   -2.2511    0.2336   -1.9363 C   0  0  0  0  0  0  0  0  0  0  0  0
    2.8297   -2.2811    0.4479 C   0  0  0  0  0  0  0  0  0  0  0  0
    3.4452   -0.0223   -1.2594 C   0  0  0  0  0  0  0  0  0  0  0  0
   -2.8290   -2.3079   -0.2905 C   0  0  0  0  0  0  0  0  0  0  0  0
   -3.4463    0.0607    1.2604 C   0  0  0  0  0  0  0  0  0  0  0  0
    1.8492    1.2869    2.8751 C   0  0  0  0  0  0  0  0  0  0  0  0
   -1.8489    1.0852   -2.9527 C   0  0  0  0  0  0  0  0  0  0  0  0
    2.2092   -2.7700    1.5976 C   0  0  0  0  0  0  0  0  0  0  0  0
    3.5361    0.0857   -2.6472 C   0  0  0  0  0  0  0  0  0  0  0  0
   -4.0465   -2.8190    0.1595 C   0  0  0  0  0  0  0  0  0  0  0  0
   -4.4110    0.5972    0.4075 C   0  0  0  0  0  0  0  0  0  0  0  0
    4.0438   -2.8235    0.0264 C   0  0  0  0  0  0  0  0  0  0  0  0
    4.4154    0.5675   -0.4490 C   0  0  0  0  0  0  0  0  0  0  0  0
   -2.2035   -2.8728   -1.4019 C   0  0  0  0  0  0  0  0  0  0  0  0
   -3.5443    0.2604    2.6374 C   0  0  0  0  0  0  0  0  0  0  0  0
    2.8028   -3.8011    2.3257 C   0  0  0  0  0  0  0  0  0  0  0  0
    4.5971    0.7835   -3.2244 C   0  0  0  0  0  0  0  0  0  0  0  0
   -4.6383   -3.8951   -0.5019 C   0  0  0  0  0  0  0  0  0  0  0  0
   -5.4734    1.3336    0.9315 C   0  0  0  0  0  0  0  0  0  0  0  0
    4.6373   -3.8547    0.7545 C   0  0  0  0  0  0  0  0  0  0  0  0
    5.4762    1.2653   -1.0263 C   0  0  0  0  0  0  0  0  0  0  0  0
   -2.7955   -3.9490   -2.0633 C   0  0  0  0  0  0  0  0  0  0  0  0
   -4.6069    0.9969    3.1614 C   0  0  0  0  0  0  0  0  0  0  0  0
    4.0168   -4.3435    1.9040 C   0  0  0  0  0  0  0  0  0  0  0  0
    5.5671    1.3733   -2.4139 C   0  0  0  0  0  0  0  0  0  0  0  0
   -4.0129   -4.4600   -1.6132 C   0  0  0  0  0  0  0  0  0  0  0  0
   -5.5713    1.5333    2.3084 C   0  0  0  0  0  0  0  0  0  0  0  0
   -1.2510    3.7085    2.5437 C   0  0  0  0  0  0  0  0  0  0  0  0
    1.2507    3.5245   -2.7892 C   0  0  0  0  0  0  0  0  0  0  0  0
    2.1075    2.3504    4.9865 C   0  0  0  0  0  0  0  0  0  0  0  0
   -2.1073    2.0003   -5.1324 C   0  0  0  0  0  0  0  0  0  0  0  0
    3.1197   -0.2424    2.1416 H   0  0  0  0  0  0  0  0  0  0  0  0
   -3.1183   -0.3910   -2.1161 H   0  0  0  0  0  0  0  0  0  0  0  0
    1.2515   -2.3858    1.9403 H   0  0  0  0  0  0  0  0  0  0  0  0
    2.7897   -0.3650   -3.2970 H   0  0  0  0  0  0  0  0  0  0  0  0
   -4.5554   -2.4212    1.0329 H   0  0  0  0  0  0  0  0  0  0  0  0
   -4.4226    0.4410   -0.6618 H   0  0  0  0  0  0  0  0  0  0  0  0
    4.5488   -2.4858   -0.8742 H   0  0  0  0  0  0  0  0  0  0  0  0
    4.4307    0.4827    0.6285 H   0  0  0  0  0  0  0  0  0  0  0  0
   -1.2433   -2.5138   -1.7641 H   0  0  0  0  0  0  0  0  0  0  0  0
   -2.8024   -0.1474    3.3198 H   0  0  0  0  0  0  0  0  0  0  0  0
    2.3172   -4.1857    3.2178 H   0  0  0  0  0  0  0  0  0  0  0  0
    4.6677    0.8681   -4.3049 H   0  0  0  0  0  0  0  0  0  0  0  0
   -5.5837   -4.2966   -0.1489 H   0  0  0  0  0  0  0  0  0  0  0  0
   -6.2308    1.7426    0.2691 H   0  0  0  0  0  0  0  0  0  0  0  0
    5.5801   -4.2808    0.4238 H   0  0  0  0  0  0  0  0  0  0  0  0
    6.2378    1.7159   -0.3964 H   0  0  0  0  0  0  0  0  0  0  0  0
   -2.3060   -4.3926   -2.9254 H   0  0  0  0  0  0  0  0  0  0  0  0
   -4.6831    1.1529    4.2335 H   0  0  0  0  0  0  0  0  0  0  0  0
    4.4777   -5.1479    2.4696 H   0  0  0  0  0  0  0  0  0  0  0  0
    6.3942    1.9148   -2.8634 H   0  0  0  0  0  0  0  0  0  0  0  0
   -4.4725   -5.2993   -2.1267 H   0  0  0  0  0  0  0  0  0  0  0  0
   -6.3998    2.1047    2.7166 H   0  0  0  0  0  0  0  0  0  0  0  0
   -2.1362    4.3007    2.2933 H   0  0  0  0  0  0  0  0  0  0  0  0
   -0.4162    4.4002    2.6988 H   0  0  0  0  0  0  0  0  0  0  0  0
   -1.4708    3.1481    3.4588 H   0  0  0  0  0  0  0  0  0  0  0  0
    2.1359    4.1327   -2.5803 H   0  0  0  0  0  0  0  0  0  0  0  0
    0.4159    4.2039   -2.9915 H   0  0  0  0  0  0  0  0  0  0  0  0
    1.4706    2.9025   -3.6635 H   0  0  0  0  0  0  0  0  0  0  0  0
    2.1511    3.3629    4.5713 H   0  0  0  0  0  0  0  0  0  0  0  0
    1.0948    2.1132    5.3295 H   0  0  0  0  0  0  0  0  0  0  0  0
    2.7746    2.3122    5.8527 H   0  0  0  0  0  0  0  0  0  0  0  0
   -2.1512    3.0390   -4.7881 H   0  0  0  0  0  0  0  0  0  0  0  0
   -1.0946    1.7403   -5.4583 H   0  0  0  0  0  0  0  0  0  0  0  0
   -2.7744    1.9022   -5.9940 H   0  0  0  0  0  0  0  0  0  0  0  0
  1 11  1  0  0  0  0
  1 17  1  0  0  0  0
  1 18  1  0  0  0  0
  2 12  1  0  0  0  0
  2 19  1  0  0  0  0
  2 20  1  0  0  0  0
  3 13  1  0  0  0  0
  3 43  1  0  0  0  0
  4 14  1  0  0  0  0
  4 44  1  0  0  0  0
  5 21  1  0  0  0  0
  5 45  1  0  0  0  0
  6 22  1  0  0  0  0
  6 46  1  0  0  0  0
  7 13  1  0  0  0  0
  7 21  2  0  0  0  0
  8 14  1  0  0  0  0
  8 22  2  0  0  0  0
  9 10  1  0  0  0  0
  9 11  1  0  0  0  0
  9 13  2  0  0  0  0
 10 12  1  0  0  0  0
 10 14  2  0  0  0  0
 11 15  2  0  0  0  0
 12 16  2  0  0  0  0
 15 21  1  0  0  0  0
 15 47  1  0  0  0  0
 16 22  1  0  0  0  0
 16 48  1  0  0  0  0
 17 23  2  0  0  0  0
 17 27  1  0  0  0  0
 18 24  2  0  0  0  0
 18 28  1  0  0  0  0
 19 25  2  0  0  0  0
 19 29  1  0  0  0  0
 20 26  2  0  0  0  0
 20 30  1  0  0  0  0
 23 31  1  0  0  0  0
 23 49  1  0  0  0  0
 24 32  1  0  0  0  0
 24 50  1  0  0  0  0
 25 33  1  0  0  0  0
 25 51  1  0  0  0  0
 26 34  1  0  0  0  0
 26 52  1  0  0  0  0
 27 35  2  0  0  0  0
 27 53  1  0  0  0  0
 28 36  2  0  0  0  0
 28 54  1  0  0  0  0
 29 37  2  0  0  0  0
 29 55  1  0  0  0  0
 30 38  2  0  0  0  0
 30 56  1  0  0  0  0
 31 39  2  0  0  0  0
 31 57  1  0  0  0  0
 32 40  2  0  0  0  0
 32 58  1  0  0  0  0
 33 41  2  0  0  0  0
 33 59  1  0  0  0  0
 34 42  2  0  0  0  0
 34 60  1  0  0  0  0
 35 39  1  0  0  0  0
 35 61  1  0  0  0  0
 36 40  1  0  0  0  0
 36 62  1  0  0  0  0
 37 41  1  0  0  0  0
 37 63  1  0  0  0  0
 38 42  1  0  0  0  0
 38 64  1  0  0  0  0
 39 65  1  0  0  0  0
 40 66  1  0  0  0  0
 41 67  1  0  0  0  0
 42 68  1  0  0  0  0
 43 69  1  0  0  0  0
 43 70  1  0  0  0  0
 43 71  1  0  0  0  0
 44 72  1  0  0  0  0
 44 73  1  0  0  0  0
 44 74  1  0  0  0  0
 45 75  1  0  0  0  0
 45 76  1  0  0  0  0
 45 77  1  0  0  0  0
 46 78  1  0  0  0  0
 46 79  1  0  0  0  0
 46 80  1  0  0  0  0
M  END
> <PUBCHEM_COMPOUND_CID>
11158950

> <PUBCHEM_CONFORMER_RMSD>
1.2

> <PUBCHEM_CONFORMER_DIVERSEORDER>
1
2
4
3
5

> <PUBCHEM_MMFF94_PARTIAL_CHARGES>
66
1 -0.04
11 0.01
12 0.01
13 0.39
14 0.39
15 -0.15
16 -0.15
17 0.01
18 0.01
19 0.01
2 -0.04
20 0.01
21 0.39
22 0.39
23 -0.15
24 -0.15
25 -0.15
26 -0.15
27 -0.15
28 -0.15
29 -0.15
3 -0.36
30 -0.15
31 -0.15
32 -0.15
33 -0.15
34 -0.15
35 -0.15
36 -0.15
37 -0.15
38 -0.15
39 -0.15
4 -0.36
40 -0.15
41 -0.15
42 -0.15
43 0.28
44 0.28
45 0.28
46 0.28
47 0.15
48 0.15
49 0.15
5 -0.36
50 0.15
51 0.15
52 0.15
53 0.15
54 0.15
55 0.15
56 0.15
57 0.15
58 0.15
59 0.15
6 -0.36
60 0.15
61 0.15
62 0.15
63 0.15
64 0.15
65 0.15
66 0.15
67 0.15
68 0.15
7 -0.62
8 -0.62

> <PUBCHEM_EFFECTIVE_ROTOR_COUNT>
11

> <PUBCHEM_PHARMACOPHORE_FEATURES>
8
1 3 acceptor
1 4 acceptor
6 17 23 27 31 35 39 rings
6 18 24 28 32 36 40 rings
6 19 25 29 33 37 41 rings
6 20 26 30 34 38 42 rings
6 7 9 11 13 15 21 rings
6 8 10 12 14 16 22 rings

> <PUBCHEM_HEAVY_ATOM_COUNT>
46

> <PUBCHEM_ATOM_DEF_STEREO_COUNT>
0

> <PUBCHEM_ATOM_UDEF_STEREO_COUNT>
0

> <PUBCHEM_BOND_DEF_STEREO_COUNT>
0

> <PUBCHEM_BOND_UDEF_STEREO_COUNT>
0

> <PUBCHEM_ISOTOPIC_ATOM_COUNT>
0

> <PUBCHEM_COMPONENT_COUNT>
1

> <PUBCHEM_CACTVS_TAUTO_COUNT>
1

> <PUBCHEM_CONFORMER_ID>
00AA45A600000001

> <PUBCHEM_MMFF94_ENERGY>
184.4953

> <PUBCHEM_FEATURE_SELFOVERLAP>
40.601

> <PUBCHEM_SHAPE_FINGERPRINT>
11421498 54 17823123700445270814
11445158 3 17756442460325769372
12633046 712 18202556267996674814
12788726 201 17772489914280106992
12977781 61 17761721391570827267
15219462 58 17985796355738275696
19319366 153 18335433322082219194
20764821 26 18042386002463257118
21033648 29 14907900410278435955
469060 322 17895761832089735590
66674814 147 17682410483039367854
86090 222 17834385005663422730

> <PUBCHEM_SHAPE_MULTIPOLES>
920.92
10.83
5.55
5.29
0.01
6.17
-0.16
4.37
0.05
0.08
0.18
-0.1
-5.01
-4.23

> <PUBCHEM_SHAPE_SELFOVERLAP>
1981.172

> <PUBCHEM_SHAPE_VOLUME>
507.8

> <PUBCHEM_COORDINATE_TYPE>
2
5
10

$$$$
11433485
  -OEChem-10112310443D

 56 57  0     1  0  0  0  0  0999 V2000
   -2.0368   -0.8772   -0.9756 P   0  0  0  0  0  0  0  0  0  0  0  0
    2.0559    0.9128   -0.9517 P   0  0  0  0  0  0  0  0  0  0  0  0
   -3.5538    0.2192   -0.9702 C   0  0  1  0  0  0  0  0  0  0  0  0
   -2.1667   -1.2358    0.8698 C   0  0  1  0  0  0  0  0  0  0  0  0
    3.5732   -0.1832   -0.9567 C   0  0  1  0  0  0  0  0  0  0  0  0
    2.1487    1.2025    0.9080 C   0  0  1  0  0  0  0  0  0  0  0  0
   -0.6735    0.3548   -0.9289 C   0  0  0  0  0  0  0  0  0  0  0  0
    0.6928   -0.3202   -0.9780 C   0  0  0  0  0  0  0  0  0  0  0  0
   -3.7844    0.5821    0.5007 C   0  0  0  0  0  0  0  0  0  0  0  0
   -3.5423   -0.7005    1.2915 C   0  0  0  0  0  0  0  0  0  0  0  0
    3.7747   -0.6004    0.5040 C   0  0  0  0  0  0  0  0  0  0  0  0
    3.5160    0.6519    1.3369 C   0  0  0  0  0  0  0  0  0  0  0  0
   -3.4799    1.4305   -1.8816 C   0  0  0  0  0  0  0  0  0  0  0  0
   -2.0101   -2.7194    1.1647 C   0  0  0  0  0  0  0  0  0  0  0  0
    3.5183   -1.3598   -1.9138 C   0  0  0  0  0  0  0  0  0  0  0  0
    1.9853    2.6743    1.2546 C   0  0  0  0  0  0  0  0  0  0  0  0
   -4.7498    2.2609   -1.8125 C   0  0  0  0  0  0  0  0  0  0  0  0
   -2.1950   -3.0218    2.6427 C   0  0  0  0  0  0  0  0  0  0  0  0
    4.7871   -2.1922   -1.8503 C   0  0  0  0  0  0  0  0  0  0  0  0
    2.1404    2.9214    2.7462 C   0  0  0  0  0  0  0  0  0  0  0  0
   -4.3815   -0.4230   -1.3000 H   0  0  0  0  0  0  0  0  0  0  0  0
   -1.3885   -0.6739    1.3999 H   0  0  0  0  0  0  0  0  0  0  0  0
    4.4069    0.4707   -1.2458 H   0  0  0  0  0  0  0  0  0  0  0  0
    1.3613    0.6203    1.4014 H   0  0  0  0  0  0  0  0  0  0  0  0
   -0.7655    1.0107   -0.0561 H   0  0  0  0  0  0  0  0  0  0  0  0
   -0.7595    0.9955   -1.8142 H   0  0  0  0  0  0  0  0  0  0  0  0
    0.7613   -0.8874   -1.9138 H   0  0  0  0  0  0  0  0  0  0  0  0
    0.8044   -1.0424   -0.1614 H   0  0  0  0  0  0  0  0  0  0  0  0
   -3.0959    1.3685    0.8353 H   0  0  0  0  0  0  0  0  0  0  0  0
   -4.8052    0.9399    0.6722 H   0  0  0  0  0  0  0  0  0  0  0  0
   -4.3369   -1.4249    1.0686 H   0  0  0  0  0  0  0  0  0  0  0  0
   -3.5756   -0.4988    2.3678 H   0  0  0  0  0  0  0  0  0  0  0  0
    3.0807   -1.3989    0.7958 H   0  0  0  0  0  0  0  0  0  0  0  0
    4.7922   -0.9641    0.6822 H   0  0  0  0  0  0  0  0  0  0  0  0
    4.3145    1.3841    1.1568 H   0  0  0  0  0  0  0  0  0  0  0  0
    3.5280    0.4104    2.4053 H   0  0  0  0  0  0  0  0  0  0  0  0
   -2.6456    2.0877   -1.6136 H   0  0  0  0  0  0  0  0  0  0  0  0
   -3.3140    1.1113   -2.9178 H   0  0  0  0  0  0  0  0  0  0  0  0
   -2.7290   -3.3157    0.5884 H   0  0  0  0  0  0  0  0  0  0  0  0
   -1.0113   -3.0545    0.8574 H   0  0  0  0  0  0  0  0  0  0  0  0
    2.6766   -2.0241   -1.6895 H   0  0  0  0  0  0  0  0  0  0  0  0
    3.3746   -1.0011   -2.9404 H   0  0  0  0  0  0  0  0  0  0  0  0
    2.7153    3.2915    0.7154 H   0  0  0  0  0  0  0  0  0  0  0  0
    0.9926    3.0208    0.9400 H   0  0  0  0  0  0  0  0  0  0  0  0
   -4.7130    3.0608   -2.5595 H   0  0  0  0  0  0  0  0  0  0  0  0
   -4.8732    2.7357   -0.8346 H   0  0  0  0  0  0  0  0  0  0  0  0
   -5.6351    1.6509   -2.0188 H   0  0  0  0  0  0  0  0  0  0  0  0
   -1.5192   -2.4184    3.2575 H   0  0  0  0  0  0  0  0  0  0  0  0
   -3.2223   -2.8371    2.9706 H   0  0  0  0  0  0  0  0  0  0  0  0
   -1.9744   -4.0764    2.8380 H   0  0  0  0  0  0  0  0  0  0  0  0
    4.7661   -2.9632   -2.6276 H   0  0  0  0  0  0  0  0  0  0  0  0
    4.8907   -2.7038   -0.8886 H   0  0  0  0  0  0  0  0  0  0  0  0
    5.6760   -1.5750   -2.0151 H   0  0  0  0  0  0  0  0  0  0  0  0
    1.9153    3.9681    2.9761 H   0  0  0  0  0  0  0  0  0  0  0  0
    3.1610    2.7245    3.0875 H   0  0  0  0  0  0  0  0  0  0  0  0
    1.4529    2.2958    3.3244 H   0  0  0  0  0  0  0  0  0  0  0  0
  1  3  1  0  0  0  0
  1  4  1  0  0  0  0
  1  7  1  0  0  0  0
  2  5  1  0  0  0  0
  2  6  1  0  0  0  0
  2  8  1  0  0  0  0
  3  9  1  0  0  0  0
  3 13  1  0  0  0  0
  3 21  1  0  0  0  0
  4 10  1  0  0  0  0
  4 14  1  0  0  0  0
  4 22  1  0  0  0  0
  5 11  1  0  0  0  0
  5 15  1  0  0  0  0
  5 23  1  0  0  0  0
  6 12  1  0  0  0  0
  6 16  1  0  0  0  0
  6 24  1  0  0  0  0
  7  8  1  0  0  0  0
  7 25  1  0  0  0  0
  7 26  1  0  0  0  0
  8 27  1  0  0  0  0
  8 28  1  0  0  0  0
  9 10  1  0  0  0  0
  9 29  1  0  0  0  0
  9 30  1  0  0  0  0
 10 31  1  0  0  0  0
 10 32  1  0  0  0  0
 11 12  1  0  0  0  0
 11 33  1  0  0  0  0
 11 34  1  0  0  0  0
 12 35  1  0  0  0  0
 12 36  1  0  0  0  0
 13 17  1  0  0  0  0
 13 37  1  0  0  0  0
 13 38  1  0  0  0  0
 14 18  1  0  0  0  0
 14 39  1  0  0  0  0
 14 40  1  0  0  0  0
 15 19  1  0  0  0  0
 15 41  1  0  0  0  0
 15 42  1  0  0  0  0
 16 20  1  0  0  0  0
 16 43  1  0  0  0  0
 16 44  1  0  0  0  0
 17 45  1  0  0  0  0
 17 46  1  0  0  0  0
 17 47  1  0  0  0  0
 18 48  1  0  0  0  0
 18 49  1  0  0  0  0
 18 50  1  0  0  0  0
 19 51  1  0  0  0  0
 19 52  1  0  0  0  0
 19 53  1  0  0  0  0
 20 54  1  0  0  0  0
 20 55  1  0  0  0  0
 20 56  1  0  0  0  0
M  END
> <PUBCHEM_COMPOUND_CID>
11433485

> <PUBCHEM_CONFORMER_RMSD>
0.8

> <PUBCHEM_CONFORMER_DIVERSEORDER>
1
45
29
10
47
33
34
23
49
44
16
50
15
27
36
32
37
52
40
13
39
6
7
43
28
26
31
3
4
51
21
17
41
2
46
5
14
25
19
30
48
24
22
11
42
8
12
38
18
35
20
9

> <PUBCHEM_MMFF94_PARTIAL_CHARGES>
8
1 -0.5
2 -0.5
3 0.17
4 0.17
5 0.17
6 0.17
7 0.17
8 0.17

> <PUBCHEM_EFFECTIVE_ROTOR_COUNT>
9

> <PUBCHEM_PHARMACOPHORE_FEATURES>
6
1 17 hydrophobe
1 18 hydrophobe
1 19 hydrophobe
1 20 hydrophobe
5 1 3 4 9 10 rings
5 2 5 6 11 12 rings

> <PUBCHEM_HEAVY_ATOM_COUNT>
20

> <PUBCHEM_ATOM_DEF_STEREO_COUNT>
4

> <PUBCHEM_ATOM_UDEF_STEREO_COUNT>
0

> <PUBCHEM_BOND_DEF_STEREO_COUNT>
0

> <PUBCHEM_BOND_UDEF_STEREO_COUNT>
0

> <PUBCHEM_ISOTOPIC_ATOM_COUNT>
0

> <PUBCHEM_COMPONENT_COUNT>
1

> <PUBCHEM_CACTVS_TAUTO_COUNT>
1

> <PUBCHEM_CONFORMER_ID>
00AE760D00000001

> <PUBCHEM_MMFF94_ENERGY>
25.1764

> <PUBCHEM_FEATURE_SELFOVERLAP>
30.449

> <PUBCHEM_SHAPE_FINGERPRINT>
10366900 7 18411982485321743478
12166972 35 16415186863117163229
12500047 106 18113890563816420099
12549972 3 18411136965174925161
12760667 363 17842848716104846782
12788726 201 17910964543634617006
13134695 92 17846223237338136700
13533116 47 18129951207789825351
13583140 156 18130221669984819983
14178342 30 17605256566205990818
14251739 40 16558743490875438204
14251757 5 17823154374773962302
15295992 7 18129678473018223667
16752209 62 17531237392480627343
17349148 13 15697999634590859868
192875 21 16774071860812272157
20554085 129 17896864475418868949
20600515 1 17967802864897774604
20645477 70 18060698399157493030
21033648 29 18261380149158207625
212916 134 17896579757588797205
21618674 53 15574724572786204981
22749437 52 15698004054117501597
23557571 272 18116991289807529913
23559900 14 18261403298646149111
23598294 1 17167865266115109261
5161694 15 18411136930809905325
57724786 102 18272660068632635241
6049 1 18267032819470549435
7615 1 15625950875300665861
9971528 1 17418085486909021660
9981440 41 17197101430516157032

> <PUBCHEM_SHAPE_MULTIPOLES>
419.29
9.77
3.22
2.72
0.11
0.11
-0.94
0.05
3.44
-0.23
-2.03
0.15
-0.07
5.5

> <PUBCHEM_SHAPE_SELFOVERLAP>
774.863

> <PUBCHEM_SHAPE_VOLUME>
263.8

> <PUBCHEM_COORDINATE_TYPE>
2
5
10

$$$$
5702644
  -OEChem-10112310443D

 44 45  0     1  0  0  0  0  0999 V2000
   -2.0564   -0.9620    0.6738 P   0  0  0  0  0  0  0  0  0  0  0  0
    2.1706    0.4331    1.0161 P   0  0  0  0  0  0  0  0  0  0  0  0
   -3.5123    0.1557    1.0513 C   0  0  2  0  0  0  0  0  0  0  0  0
   -2.2092   -0.7440   -1.1864 C   0  0  2  0  0  0  0  0  0  0  0  0
    3.5887   -0.7251    0.6277 C   0  0  2  0  0  0  0  0  0  0  0  0
    2.2423    1.2505   -0.6805 C   0  0  2  0  0  0  0  0  0  0  0  0
   -0.5960    0.1121    0.9615 C   0  0  0  0  0  0  0  0  0  0  0  0
    0.7085   -0.6478    0.7477 C   0  0  0  0  0  0  0  0  0  0  0  0
   -4.1561    0.4891   -0.3043 C   0  0  0  0  0  0  0  0  0  0  0  0
   -3.0563    0.5230   -1.3605 C   0  0  0  0  0  0  0  0  0  0  0  0
    3.7181   -0.7071   -0.8992 C   0  0  0  0  0  0  0  0  0  0  0  0
    3.5467    0.7507   -1.3170 C   0  0  0  0  0  0  0  0  0  0  0  0
   -3.1855    1.4042    1.8583 C   0  0  0  0  0  0  0  0  0  0  0  0
   -2.8569   -1.9757   -1.8157 C   0  0  0  0  0  0  0  0  0  0  0  0
    3.4572   -2.1239    1.2011 C   0  0  0  0  0  0  0  0  0  0  0  0
    2.1967    2.7671   -0.5739 C   0  0  0  0  0  0  0  0  0  0  0  0
   -4.2278   -0.4364    1.6346 H   0  0  0  0  0  0  0  0  0  0  0  0
   -1.2241   -0.6029   -1.6437 H   0  0  0  0  0  0  0  0  0  0  0  0
    4.4829   -0.2570    1.0591 H   0  0  0  0  0  0  0  0  0  0  0  0
    1.3950    0.9088   -1.2858 H   0  0  0  0  0  0  0  0  0  0  0  0
   -0.6362    1.0005    0.3221 H   0  0  0  0  0  0  0  0  0  0  0  0
   -0.6213    0.4665    1.9987 H   0  0  0  0  0  0  0  0  0  0  0  0
    0.7534   -1.4713    1.4706 H   0  0  0  0  0  0  0  0  0  0  0  0
    0.7435   -1.1037   -0.2481 H   0  0  0  0  0  0  0  0  0  0  0  0
   -4.7036    1.4378   -0.2751 H   0  0  0  0  0  0  0  0  0  0  0  0
   -4.8908   -0.2839   -0.5637 H   0  0  0  0  0  0  0  0  0  0  0  0
   -3.4800    0.5884   -2.3685 H   0  0  0  0  0  0  0  0  0  0  0  0
   -2.4375    1.4178   -1.2168 H   0  0  0  0  0  0  0  0  0  0  0  0
    2.9500   -1.3291   -1.3760 H   0  0  0  0  0  0  0  0  0  0  0  0
    4.6938   -1.0926   -1.2141 H   0  0  0  0  0  0  0  0  0  0  0  0
    4.4069    1.3378   -0.9691 H   0  0  0  0  0  0  0  0  0  0  0  0
    3.5096    0.8472   -2.4075 H   0  0  0  0  0  0  0  0  0  0  0  0
   -2.5204    2.0872    1.3199 H   0  0  0  0  0  0  0  0  0  0  0  0
   -4.1033    1.9594    2.0836 H   0  0  0  0  0  0  0  0  0  0  0  0
   -2.7178    1.1502    2.8154 H   0  0  0  0  0  0  0  0  0  0  0  0
   -3.8378   -2.2052   -1.3856 H   0  0  0  0  0  0  0  0  0  0  0  0
   -2.9904   -1.8285   -2.8928 H   0  0  0  0  0  0  0  0  0  0  0  0
   -2.2245   -2.8605   -1.6790 H   0  0  0  0  0  0  0  0  0  0  0  0
    3.2856   -2.0981    2.2826 H   0  0  0  0  0  0  0  0  0  0  0  0
    2.6372   -2.6855    0.7415 H   0  0  0  0  0  0  0  0  0  0  0  0
    4.3762   -2.6931    1.0227 H   0  0  0  0  0  0  0  0  0  0  0  0
    2.2656    3.2232   -1.5673 H   0  0  0  0  0  0  0  0  0  0  0  0
    1.2587    3.1018   -0.1167 H   0  0  0  0  0  0  0  0  0  0  0  0
    3.0205    3.1600    0.0329 H   0  0  0  0  0  0  0  0  0  0  0  0
  1  3  1  0  0  0  0
  1  4  1  0  0  0  0
  1  7  1  0  0  0  0
  2  5  1  0  0  0  0
  2  6  1  0  0  0  0
  2  8  1  0  0  0  0
  3  9  1  0  0  0  0
  3 13  1  0  0  0  0
  3 17  1  0  0  0  0
  4 10  1  0  0  0  0
  4 14  1  0  0  0  0
  4 18  1  0  0  0  0
  5 11  1  0  0  0  0
  5 15  1  0  0  0  0
  5 19  1  0  0  0  0
  6 12  1  0  0  0  0
  6 16  1  0  0  0  0
  6 20  1  0  0  0  0
  7  8  1  0  0  0  0
  7 21  1  0  0  0  0
  7 22  1  0  0  0  0
  8 23  1  0  0  0  0
  8 24  1  0  0  0  0
  9 10  1  0  0  0  0
  9 25  1  0  0  0  0
  9 26  1  0  0  0  0
 10 27  1  0  0  0  0
 10 28  1  0  0  0  0
 11 12  1  0  0  0  0
 11 29  1  0  0  0  0
 11 30  1  0  0  0  0
 12 31  1  0  0  0  0
 12 32  1  0  0  0  0
 13 33  1  0  0  0  0
 13 34  1  0  0  0  0
 13 35  1  0  0  0  0
 14 36  1  0  0  0  0
 14 37  1  0  0  0  0
 14 38  1  0  0  0  0
 15 39  1  0  0  0  0
 15 40  1  0  0  0  0
 15 41  1  0  0  0  0
 16 42  1  0  0  0  0
 16 43  1  0  0  0  0
 16 44  1  0  0  0  0
M  END
> <PUBCHEM_COMPOUND_CID>
5702644

> <PUBCHEM_CONFORMER_RMSD>
0.6

> <PUBCHEM_CONFORMER_DIVERSEORDER>
1
2
13
8
6
14
4
10
3
11
7
9
5
12

> <PUBCHEM_MMFF94_PARTIAL_CHARGES>
8
1 -0.5
2 -0.5
3 0.17
4 0.17
5 0.17
6 0.17
7 0.17
8 0.17

> <PUBCHEM_EFFECTIVE_ROTOR_COUNT>
5

> <PUBCHEM_PHARMACOPHORE_FEATURES>
2
5 1 3 4 9 10 rings
5 2 5 6 11 12 rings

> <PUBCHEM_HEAVY_ATOM_COUNT>
16

> <PUBCHEM_ATOM_DEF_STEREO_COUNT>
4

> <PUBCHEM_ATOM_UDEF_STEREO_COUNT>
0

> <PUBCHEM_BOND_DEF_STEREO_COUNT>
0

> <PUBCHEM_BOND_UDEF_STEREO_COUNT>
0

> <PUBCHEM_ISOTOPIC_ATOM_COUNT>
0

> <PUBCHEM_COMPONENT_COUNT>
1

> <PUBCHEM_CACTVS_TAUTO_COUNT>
1

> <PUBCHEM_CONFORMER_ID>
005703F400000001

> <PUBCHEM_MMFF94_ENERGY>
26.2732

> <PUBCHEM_FEATURE_SELFOVERLAP>
10.149

> <PUBCHEM_SHAPE_FINGERPRINT>
10366900 7 15791731901748101617
10498660 4 14562522981481239679
11552529 35 18117015453504813803
11615757 297 18259991465639367921
12173636 292 17894908559912075419
12346177 29 16630525107484192497
12596599 1 18342453772422914205
12670545 47 15502376742444399289
12932764 1 16732697281008183666
13134695 92 18114449090459883292
13296908 3 14908186377568982223
13693222 15 11743842468926748738
14115302 16 17918273160226577811
14251757 17 16515965848651465530
15375358 24 14333124148321702881
17834072 14 14117514316182465345
18186145 218 18333736840053682312
18981168 100 16153973750965130886
20645476 183 18342176699983315279
20645477 70 17748824086260265082
21486144 27 17822013171851112352
21639500 275 18114180873678015346
22169311 21 14764343816895275194
23557571 272 17701524328335163691
23559900 14 14056989495223746226
23598291 2 18342460382451461628
3082319 5 18272370931259370101
312423 11 18270402818525959079
4921388 177 17845938536640624159
5281201 14 16733271170628585090
58051976 100 18336550511863618767
6049 1 16660365882810306291
74978 22 18335703887756867418
7615 1 18272085041030041880
81228 2 15194745448939329571
9882013 296 10665229262928324683

> <PUBCHEM_SHAPE_MULTIPOLES>
336.97
8.85
2.1
1.83
0.21
0.43
0.12
-0.45
0.77
-1.24
0.25
0.93
-0.17
-1.99

> <PUBCHEM_SHAPE_SELFOVERLAP>
619.001

> <PUBCHEM_SHAPE_VOLUME>
213.9

> <PUBCHEM_COORDINATE_TYPE>
2
5
10

$$$$
15700985
  -OEChem-10112310443D

 56 57  0     1  0  0  0  0  0999 V2000
    2.0499   -0.9319   -0.9421 P   0  0  0  0  0  0  0  0  0  0  0  0
   -2.0307    0.8847   -0.9770 P   0  0  0  0  0  0  0  0  0  0  0  0
    3.5743    0.1543   -0.9536 C   0  0  2  0  0  0  0  0  0  0  0  0
    2.1288   -1.1940    0.9227 C   0  0  2  0  0  0  0  0  0  0  0  0
   -3.5554   -0.2010   -0.9657 C   0  0  2  0  0  0  0  0  0  0  0  0
   -2.1464    1.2377    0.8707 C   0  0  2  0  0  0  0  0  0  0  0  0
    0.6949    0.3087   -0.9961 C   0  0  0  0  0  0  0  0  0  0  0  0
   -0.6758   -0.3570   -0.9433 C   0  0  0  0  0  0  0  0  0  0  0  0
    3.7687    0.5924    0.5019 C   0  0  0  0  0  0  0  0  0  0  0  0
    3.4967   -0.6453    1.3521 C   0  0  0  0  0  0  0  0  0  0  0  0
   -3.7792   -0.5675    0.5053 C   0  0  0  0  0  0  0  0  0  0  0  0
   -3.5230    0.7105    1.2991 C   0  0  0  0  0  0  0  0  0  0  0  0
    3.5331    1.3164   -1.9287 C   0  0  0  0  0  0  0  0  0  0  0  0
    1.9540   -2.6594    1.2902 C   0  0  0  0  0  0  0  0  0  0  0  0
   -3.4958   -1.4096   -1.8818 C   0  0  0  0  0  0  0  0  0  0  0  0
   -1.9776    2.7194    1.1694 C   0  0  0  0  0  0  0  0  0  0  0  0
    4.8323    2.1030   -1.9164 C   0  0  0  0  0  0  0  0  0  0  0  0
    2.0329   -2.8760    2.7925 C   0  0  0  0  0  0  0  0  0  0  0  0
   -4.7956   -2.1946   -1.8568 C   0  0  0  0  0  0  0  0  0  0  0  0
   -2.0863    3.0092    2.6575 C   0  0  0  0  0  0  0  0  0  0  0  0
    4.4040   -0.5111   -1.2276 H   0  0  0  0  0  0  0  0  0  0  0  0
    1.3411   -0.5991    1.4001 H   0  0  0  0  0  0  0  0  0  0  0  0
   -4.3789    0.4500   -1.2885 H   0  0  0  0  0  0  0  0  0  0  0  0
   -1.3680    0.6681    1.3922 H   0  0  0  0  0  0  0  0  0  0  0  0
    0.7724    0.8632   -1.9389 H   0  0  0  0  0  0  0  0  0  0  0  0
    0.8079    1.0417   -0.1892 H   0  0  0  0  0  0  0  0  0  0  0  0
   -0.7691   -1.0142   -0.0715 H   0  0  0  0  0  0  0  0  0  0  0  0
   -0.7715   -0.9957   -1.8290 H   0  0  0  0  0  0  0  0  0  0  0  0
    4.7871    0.9533    0.6804 H   0  0  0  0  0  0  0  0  0  0  0  0
    3.0780    1.3996    0.7767 H   0  0  0  0  0  0  0  0  0  0  0  0
    3.5029   -0.3881    2.4169 H   0  0  0  0  0  0  0  0  0  0  0  0
    4.2914   -1.3854    1.1893 H   0  0  0  0  0  0  0  0  0  0  0  0
   -4.8010   -0.9197    0.6811 H   0  0  0  0  0  0  0  0  0  0  0  0
   -3.0941   -1.3599    0.8328 H   0  0  0  0  0  0  0  0  0  0  0  0
   -3.5505    0.5057    2.3749 H   0  0  0  0  0  0  0  0  0  0  0  0
   -4.3138    1.4416    1.0846 H   0  0  0  0  0  0  0  0  0  0  0  0
    3.3504    0.9468   -2.9453 H   0  0  0  0  0  0  0  0  0  0  0  0
    2.7189    2.0107   -1.6927 H   0  0  0  0  0  0  0  0  0  0  0  0
    0.9788   -3.0171    0.9357 H   0  0  0  0  0  0  0  0  0  0  0  0
    2.7113   -3.2836    0.7991 H   0  0  0  0  0  0  0  0  0  0  0  0
   -3.2911   -1.0912   -2.9113 H   0  0  0  0  0  0  0  0  0  0  0  0
   -2.6894   -2.0932   -1.5938 H   0  0  0  0  0  0  0  0  0  0  0  0
   -0.9953    3.0593    0.8173 H   0  0  0  0  0  0  0  0  0  0  0  0
   -2.7245    3.3189    0.6333 H   0  0  0  0  0  0  0  0  0  0  0  0
    4.8123    2.8685   -2.6993 H   0  0  0  0  0  0  0  0  0  0  0  0
    5.6922    1.4526   -2.1060 H   0  0  0  0  0  0  0  0  0  0  0  0
    4.9874    2.6165   -0.9629 H   0  0  0  0  0  0  0  0  0  0  0  0
    3.0312   -2.6557    3.1822 H   0  0  0  0  0  0  0  0  0  0  0  0
    1.3071   -2.2495    3.3209 H   0  0  0  0  0  0  0  0  0  0  0  0
    1.8108   -3.9213    3.0313 H   0  0  0  0  0  0  0  0  0  0  0  0
   -4.7605   -2.9979   -2.6001 H   0  0  0  0  0  0  0  0  0  0  0  0
   -5.6508   -1.5546   -2.0959 H   0  0  0  0  0  0  0  0  0  0  0  0
   -4.9706   -2.6602   -0.8823 H   0  0  0  0  0  0  0  0  0  0  0  0
   -1.8682    4.0649    2.8493 H   0  0  0  0  0  0  0  0  0  0  0  0
   -1.3719    2.4094    3.2304 H   0  0  0  0  0  0  0  0  0  0  0  0
   -3.0924    2.8082    3.0376 H   0  0  0  0  0  0  0  0  0  0  0  0
  1  3  1  0  0  0  0
  1  4  1  0  0  0  0
  1  7  1  0  0  0  0
  2  5  1  0  0  0  0
  2  6  1  0  0  0  0
  2  8  1  0  0  0  0
  3  9  1  0  0  0  0
  3 13  1  0  0  0  0
  3 21  1  0  0  0  0
  4 10  1  0  0  0  0
  4 14  1  0  0  0  0
  4 22  1  0  0  0  0
  5 11  1  0  0  0  0
  5 15  1  0  0  0  0
  5 23  1  0  0  0  0
  6 12  1  0  0  0  0
  6 16  1  0  0  0  0
  6 24  1  0  0  0  0
  7  8  1  0  0  0  0
  7 25  1  0  0  0  0
  7 26  1  0  0  0  0
  8 27  1  0  0  0  0
  8 28  1  0  0  0  0
  9 10  1  0  0  0  0
  9 29  1  0  0  0  0
  9 30  1  0  0  0  0
 10 31  1  0  0  0  0
 10 32  1  0  0  0  0
 11 12  1  0  0  0  0
 11 33  1  0  0  0  0
 11 34  1  0  0  0  0
 12 35  1  0  0  0  0
 12 36  1  0  0  0  0
 13 17  1  0  0  0  0
 13 37  1  0  0  0  0
 13 38  1  0  0  0  0
 14 18  1  0  0  0  0
 14 39  1  0  0  0  0
 14 40  1  0  0  0  0
 15 19  1  0  0  0  0
 15 41  1  0  0  0  0
 15 42  1  0  0  0  0
 16 20  1  0  0  0  0
 16 43  1  0  0  0  0
 16 44  1  0  0  0  0
 17 45  1  0  0  0  0
 17 46  1  0  0  0  0
 17 47  1  0  0  0  0
 18 48  1  0  0  0  0
 18 49  1  0  0  0  0
 18 50  1  0  0  0  0
 19 51  1  0  0  0  0
 19 52  1  0  0  0  0
 19 53  1  0  0  0  0
 20 54  1  0  0  0  0
 20 55  1  0  0  0  0
 20 56  1  0  0  0  0
M  END
> <PUBCHEM_COMPOUND_CID>
15700985

> <PUBCHEM_CONFORMER_RMSD>
0.8

> <PUBCHEM_CONFORMER_DIVERSEORDER>
1
35
37
24
47
3
21
28
46
16
9
27
43
33
42
39
29
6
15
38
34
45
25
2
14
18
40
31
13
7
44
30
20
32
4
17
26
5
10
23
22
41
36
11
19
12
8

> <PUBCHEM_MMFF94_PARTIAL_CHARGES>
8
1 -0.5
2 -0.5
3 0.17
4 0.17
5 0.17
6 0.17
7 0.17
8 0.17

> <PUBCHEM_EFFECTIVE_ROTOR_COUNT>
9

> <PUBCHEM_PHARMACOPHORE_FEATURES>
6
1 17 hydrophobe
1 18 hydrophobe
1 19 hydrophobe
1 20 hydrophobe
5 1 3 4 9 10 rings
5 2 5 6 11 12 rings

> <PUBCHEM_HEAVY_ATOM_COUNT>
20

> <PUBCHEM_ATOM_DEF_STEREO_COUNT>
4

> <PUBCHEM_ATOM_UDEF_STEREO_COUNT>
0

> <PUBCHEM_BOND_DEF_STEREO_COUNT>
0

> <PUBCHEM_BOND_UDEF_STEREO_COUNT>
0

> <PUBCHEM_ISOTOPIC_ATOM_COUNT>
0

> <PUBCHEM_COMPONENT_COUNT>
1

> <PUBCHEM_CACTVS_TAUTO_COUNT>
1

> <PUBCHEM_CONFORMER_ID>
00EF93F900000001

> <PUBCHEM_MMFF94_ENERGY>
24.5428

> <PUBCHEM_FEATURE_SELFOVERLAP>
30.449

> <PUBCHEM_SHAPE_FINGERPRINT>
10498660 4 17846777395055763469
11595378 159 18131340891380982219
12553582 1 17988924517979952343
12596602 18 18263950803127524513
12788726 201 18343863321098255311
13032168 30 18044953495299960467
13583140 156 17607268470806656025
13911987 19 17169568499710182484
14787075 74 18196367237228810533
15375358 24 15647047192028451862
15806764 133 15195571203609383323
15842332 3 18338517409026053650
17138139 8 17903901602496504911
20645477 70 17095238107847867022
23503958 25 17203333260495858528
23557571 272 16916777466649847569
23559900 14 17773877489121852023
238918 7 15596657265997734872
312423 11 18339366249288314270
5281201 14 15482675701614062156
59755656 520 17751381658160182844
6049 1 15841547457492188477
633830 44 18189922866882809396
7097593 13 17905888076441381330
7615 1 18266734692905632217
9709674 26 17024013874651213111

> <PUBCHEM_SHAPE_MULTIPOLES>
419.29
9.74
3.16
2.78
0.11
0.15
0.96
0.01
-3.79
-0.29
2.07
0.21
-0.09
-5.4

> <PUBCHEM_SHAPE_SELFOVERLAP>
774.563

> <PUBCHEM_SHAPE_VOLUME>
263.9

> <PUBCHEM_COORDINATE_TYPE>
2
5
10

$$$$
11309094
  -OEChem-10112310443D

 92 97  0     0  0  0  0  0  0999 V2000
    2.0795   -0.7876   -0.4481 P   0  0  0  0  0  0  0  0  0  0  0  0
   -2.0790   -0.7874    0.4313 P   0  0  0  0  0  0  0  0  0  0  0  0
   -1.0651    2.9040    1.5114 O   0  0  0  0  0  0  0  0  0  0  0  0
    1.0664    2.9173   -1.4903 O   0  0  0  0  0  0  0  0  0  0  0  0
    2.3647    1.3625    4.2049 O   0  0  0  0  0  0  0  0  0  0  0  0
   -2.3645    1.4032   -4.1980 O   0  0  0  0  0  0  0  0  0  0  0  0
    0.6469    2.1280    2.8458 N   0  0  0  0  0  0  0  0  0  0  0  0
   -0.6462    2.1549   -2.8318 N   0  0  0  0  0  0  0  0  0  0  0  0
    0.3769    1.2158    0.6232 C   0  0  0  0  0  0  0  0  0  0  0  0
   -0.3768    1.2219   -0.6179 C   0  0  0  0  0  0  0  0  0  0  0  0
    1.4728    0.3837    0.8235 C   0  0  0  0  0  0  0  0  0  0  0  0
   -1.4731    0.3923   -0.8260 C   0  0  0  0  0  0  0  0  0  0  0  0
    3.5026    0.1540   -1.0954 C   0  0  0  0  0  0  0  0  0  0  0  0
    2.8076   -2.1669    0.4940 C   0  0  0  0  0  0  0  0  0  0  0  0
   -3.5013    0.1496    1.0932 C   0  0  0  0  0  0  0  0  0  0  0  0
   -2.8091   -2.1599   -0.5140 C   0  0  0  0  0  0  0  0  0  0  0  0
    0.0077    2.0620    1.6564 C   0  0  0  0  0  0  0  0  0  0  0  0
   -0.0071    2.0774   -1.6431 C   0  0  0  0  0  0  0  0  0  0  0  0
    2.1563    0.4228    2.0339 C   0  0  0  0  0  0  0  0  0  0  0  0
   -2.1566    0.4431   -2.0358 C   0  0  0  0  0  0  0  0  0  0  0  0
    1.7074    1.3045    3.0039 C   0  0  0  0  0  0  0  0  0  0  0  0
   -1.7072    1.3336   -2.9976 C   0  0  0  0  0  0  0  0  0  0  0  0
    3.6674    0.3115   -2.4715 C   0  0  0  0  0  0  0  0  0  0  0  0
    2.1292   -2.6974    1.5913 C   0  0  0  0  0  0  0  0  0  0  0  0
   -3.6585    0.2984    2.4712 C   0  0  0  0  0  0  0  0  0  0  0  0
   -2.1360   -2.6826   -1.6182 C   0  0  0  0  0  0  0  0  0  0  0  0
    4.4262    0.7152   -0.2135 C   0  0  0  0  0  0  0  0  0  0  0  0
    4.0442   -2.6915    0.1182 C   0  0  0  0  0  0  0  0  0  0  0  0
   -4.4305    0.7151    0.2200 C   0  0  0  0  0  0  0  0  0  0  0  0
   -4.0430   -2.6887   -0.1346 C   0  0  0  0  0  0  0  0  0  0  0  0
    5.6796    1.5915   -2.0838 C   0  0  0  0  0  0  0  0  0  0  0  0
    3.9242   -4.2772    1.9370 C   0  0  0  0  0  0  0  0  0  0  0  0
   -5.6742    1.5782    2.1029 C   0  0  0  0  0  0  0  0  0  0  0  0
   -3.9305   -4.2628   -1.9639 C   0  0  0  0  0  0  0  0  0  0  0  0
    4.7559    1.0304   -2.9657 C   0  0  0  0  0  0  0  0  0  0  0  0
    2.6876   -3.7526    2.3127 C   0  0  0  0  0  0  0  0  0  0  0  0
   -4.7450    1.0128    2.9761 C   0  0  0  0  0  0  0  0  0  0  0  0
   -2.6967   -3.7341   -2.3432 C   0  0  0  0  0  0  0  0  0  0  0  0
    5.5147    1.4339   -0.7077 C   0  0  0  0  0  0  0  0  0  0  0  0
    4.6025   -3.7466    0.8397 C   0  0  0  0  0  0  0  0  0  0  0  0
   -5.5170    1.4294    0.7249 C   0  0  0  0  0  0  0  0  0  0  0  0
   -4.6036   -3.7401   -0.8597 C   0  0  0  0  0  0  0  0  0  0  0  0
    6.8438    2.3588   -2.6127 C   0  0  0  0  0  0  0  0  0  0  0  0
    4.5214   -5.4044    2.7094 C   0  0  0  0  0  0  0  0  0  0  0  0
   -6.8364    2.3408    2.6430 C   0  0  0  0  0  0  0  0  0  0  0  0
   -4.5302   -5.3861   -2.7401 C   0  0  0  0  0  0  0  0  0  0  0  0
   -1.3764    3.7391    2.6195 C   0  0  0  0  0  0  0  0  0  0  0  0
    1.3779    3.7626   -2.5906 C   0  0  0  0  0  0  0  0  0  0  0  0
    1.8631    2.2843    5.1652 C   0  0  0  0  0  0  0  0  0  0  0  0
   -1.8623    2.3336   -5.1498 C   0  0  0  0  0  0  0  0  0  0  0  0
    3.0128   -0.1963    2.2735 H   0  0  0  0  0  0  0  0  0  0  0  0
   -3.0142   -0.1727   -2.2805 H   0  0  0  0  0  0  0  0  0  0  0  0
    2.9584   -0.1166   -3.1761 H   0  0  0  0  0  0  0  0  0  0  0  0
    1.1537   -2.3269    1.8965 H   0  0  0  0  0  0  0  0  0  0  0  0
   -2.9450   -0.1333    3.1690 H   0  0  0  0  0  0  0  0  0  0  0  0
   -1.1627   -2.3089   -1.9265 H   0  0  0  0  0  0  0  0  0  0  0  0
    4.3860    0.5912    0.8593 H   0  0  0  0  0  0  0  0  0  0  0  0
    4.5949   -2.3201   -0.7415 H   0  0  0  0  0  0  0  0  0  0  0  0
   -4.3942    0.5981   -0.8540 H   0  0  0  0  0  0  0  0  0  0  0  0
   -4.5896   -2.3237    0.7304 H   0  0  0  0  0  0  0  0  0  0  0  0
    4.8742    1.1453   -4.0398 H   0  0  0  0  0  0  0  0  0  0  0  0
    2.1482   -4.1595    3.1640 H   0  0  0  0  0  0  0  0  0  0  0  0
   -4.8574    1.1208    4.0516 H   0  0  0  0  0  0  0  0  0  0  0  0
   -2.1613   -4.1349   -3.1999 H   0  0  0  0  0  0  0  0  0  0  0  0
    6.2348    1.8562   -0.0118 H   0  0  0  0  0  0  0  0  0  0  0  0
    5.5656   -4.1485    0.5360 H   0  0  0  0  0  0  0  0  0  0  0  0
   -6.2413    1.8555    0.0356 H   0  0  0  0  0  0  0  0  0  0  0  0
   -5.5644   -4.1454   -0.5532 H   0  0  0  0  0  0  0  0  0  0  0  0
    7.1554    3.1389   -1.9098 H   0  0  0  0  0  0  0  0  0  0  0  0
    6.5924    2.8585   -3.5544 H   0  0  0  0  0  0  0  0  0  0  0  0
    7.6892    1.6858   -2.7870 H   0  0  0  0  0  0  0  0  0  0  0  0
    3.7435   -6.0476    3.1349 H   0  0  0  0  0  0  0  0  0  0  0  0
    5.1442   -6.0371    2.0679 H   0  0  0  0  0  0  0  0  0  0  0  0
    5.1395   -5.0152    3.5245 H   0  0  0  0  0  0  0  0  0  0  0  0
   -7.6803    1.6659    2.8174 H   0  0  0  0  0  0  0  0  0  0  0  0
   -6.5805    2.8345    3.5867 H   0  0  0  0  0  0  0  0  0  0  0  0
   -7.1524    3.1253    1.9470 H   0  0  0  0  0  0  0  0  0  0  0  0
   -5.1541   -4.9928   -3.5488 H   0  0  0  0  0  0  0  0  0  0  0  0
   -3.7537   -6.0250   -3.1744 H   0  0  0  0  0  0  0  0  0  0  0  0
   -5.1480   -6.0241   -2.0989 H   0  0  0  0  0  0  0  0  0  0  0  0
   -1.6388    3.1435    3.5005 H   0  0  0  0  0  0  0  0  0  0  0  0
   -0.5511    4.4241    2.8412 H   0  0  0  0  0  0  0  0  0  0  0  0
   -2.2496    4.3409    2.3506 H   0  0  0  0  0  0  0  0  0  0  0  0
    1.6403    3.1750   -3.4770 H   0  0  0  0  0  0  0  0  0  0  0  0
    0.5529    4.4499   -2.8059 H   0  0  0  0  0  0  0  0  0  0  0  0
    2.2513    4.3616   -2.3160 H   0  0  0  0  0  0  0  0  0  0  0  0
    2.4880    2.2117    6.0603 H   0  0  0  0  0  0  0  0  0  0  0  0
    0.8354    2.0344    5.4499 H   0  0  0  0  0  0  0  0  0  0  0  0
    1.9252    3.3123    4.7927 H   0  0  0  0  0  0  0  0  0  0  0  0
   -2.4872    2.2697   -6.0455 H   0  0  0  0  0  0  0  0  0  0  0  0
   -0.8348    2.0858   -5.4368 H   0  0  0  0  0  0  0  0  0  0  0  0
   -1.9238    3.3581   -4.7676 H   0  0  0  0  0  0  0  0  0  0  0  0
  1 11  1  0  0  0  0
  1 13  1  0  0  0  0
  1 14  1  0  0  0  0
  2 12  1  0  0  0  0
  2 15  1  0  0  0  0
  2 16  1  0  0  0  0
  3 17  1  0  0  0  0
  3 47  1  0  0  0  0
  4 18  1  0  0  0  0
  4 48  1  0  0  0  0
  5 21  1  0  0  0  0
  5 49  1  0  0  0  0
  6 22  1  0  0  0  0
  6 50  1  0  0  0  0
  7 17  1  0  0  0  0
  7 21  2  0  0  0  0
  8 18  1  0  0  0  0
  8 22  2  0  0  0  0
  9 10  1  0  0  0  0
  9 11  1  0  0  0  0
  9 17  2  0  0  0  0
 10 12  1  0  0  0  0
 10 18  2  0  0  0  0
 11 19  2  0  0  0  0
 12 20  2  0  0  0  0
 13 23  2  0  0  0  0
 13 27  1  0  0  0  0
 14 24  2  0  0  0  0
 14 28  1  0  0  0  0
 15 25  2  0  0  0  0
 15 29  1  0  0  0  0
 16 26  2  0  0  0  0
 16 30  1  0  0  0  0
 19 21  1  0  0  0  0
 19 51  1  0  0  0  0
 20 22  1  0  0  0  0
 20 52  1  0  0  0  0
 23 35  1  0  0  0  0
 23 53  1  0  0  0  0
 24 36  1  0  0  0  0
 24 54  1  0  0  0  0
 25 37  1  0  0  0  0
 25 55  1  0  0  0  0
 26 38  1  0  0  0  0
 26 56  1  0  0  0  0
 27 39  2  0  0  0  0
 27 57  1  0  0  0  0
 28 40  2  0  0  0  0
 28 58  1  0  0  0  0
 29 41  2  0  0  0  0
 29 59  1  0  0  0  0
 30 42  2  0  0  0  0
 30 60  1  0  0  0  0
 31 35  2  0  0  0  0
 31 39  1  0  0  0  0
 31 43  1  0  0  0  0
 32 36  2  0  0  0  0
 32 40  1  0  0  0  0
 32 44  1  0  0  0  0
 33 37  2  0  0  0  0
 33 41  1  0  0  0  0
 33 45  1  0  0  0  0
 34 38  2  0  0  0  0
 34 42  1  0  0  0  0
 34 46  1  0  0  0  0
 35 61  1  0  0  0  0
 36 62  1  0  0  0  0
 37 63  1  0  0  0  0
 38 64  1  0  0  0  0
 39 65  1  0  0  0  0
 40 66  1  0  0  0  0
 41 67  1  0  0  0  0
 42 68  1  0  0  0  0
 43 69  1  0  0  0  0
 43 70  1  0  0  0  0
 43 71  1  0  0  0  0
 44 72  1  0  0  0  0
 44 73  1  0  0  0  0
 44 74  1  0  0  0  0
 45 75  1  0  0  0  0
 45 76  1  0  0  0  0
 45 77  1  0  0  0  0
 46 78  1  0  0  0  0
 46 79  1  0  0  0  0
 46 80  1  0  0  0  0
 47 81  1  0  0  0  0
 47 82  1  0  0  0  0
 47 83  1  0  0  0  0
 48 84  1  0  0  0  0
 48 85  1  0  0  0  0
 48 86  1  0  0  0  0
 49 87  1  0  0  0  0
 49 88  1  0  0  0  0
 49 89  1  0  0  0  0
 50 90  1  0  0  0  0
 50 91  1  0  0  0  0
 50 92  1  0  0  0  0
M  END
> <PUBCHEM_COMPOUND_CID>
11309094

> <PUBCHEM_CONFORMER_RMSD>
1.2

> <PUBCHEM_CONFORMER_DIVERSEORDER>
1
4
5
2
3

> <PUBCHEM_MMFF94_PARTIAL_CHARGES>
66
1 -0.04
11 0.01
12 0.01
13 0.01
14 0.01
15 0.01
16 0.01
17 0.39
18 0.39
19 -0.15
2 -0.04
20 -0.15
21 0.39
22 0.39
23 -0.15
24 -0.15
25 -0.15
26 -0.15
27 -0.15
28 -0.15
29 -0.15
3 -0.36
30 -0.15
31 -0.14
32 -0.14
33 -0.14
34 -0.14
35 -0.15
36 -0.15
37 -0.15
38 -0.15
39 -0.15
4 -0.36
40 -0.15
41 -0.15
42 -0.15
43 0.14
44 0.14
45 0.14
46 0.14
47 0.28
48 0.28
49 0.28
5 -0.36
50 0.28
51 0.15
52 0.15
53 0.15
54 0.15
55 0.15
56 0.15
57 0.15
58 0.15
59 0.15
6 -0.36
60 0.15
61 0.15
62 0.15
63 0.15
64 0.15
65 0.15
66 0.15
67 0.15
68 0.15
7 -0.62
8 -0.62

> <PUBCHEM_EFFECTIVE_ROTOR_COUNT>
11

> <PUBCHEM_PHARMACOPHORE_FEATURES>
8
1 3 acceptor
1 4 acceptor
6 13 23 27 31 35 39 rings
6 14 24 28 32 36 40 rings
6 15 25 29 33 37 41 rings
6 16 26 30 34 38 42 rings
6 7 9 11 17 19 21 rings
6 8 10 12 18 20 22 rings

> <PUBCHEM_HEAVY_ATOM_COUNT>
50

> <PUBCHEM_ATOM_DEF_STEREO_COUNT>
0

> <PUBCHEM_ATOM_UDEF_STEREO_COUNT>
0

> <PUBCHEM_BOND_DEF_STEREO_COUNT>
0

> <PUBCHEM_BOND_UDEF_STEREO_COUNT>
0

> <PUBCHEM_ISOTOPIC_ATOM_COUNT>
0

> <PUBCHEM_COMPONENT_COUNT>
1

> <PUBCHEM_CACTVS_TAUTO_COUNT>
1

> <PUBCHEM_CONFORMER_ID>
00AC902600000001

> <PUBCHEM_MMFF94_ENERGY>
194.5876

> <PUBCHEM_FEATURE_SELFOVERLAP>
40.601

> <PUBCHEM_SHAPE_FINGERPRINT>
11445158 3 17974576796795001750
12633046 712 18131339804696351238
12977781 61 17618165850618509575
15815584 197 15213288760224429942
19319366 153 18335432226839048506
21033648 29 14764063411592495875
6009941 240 17631752529099179748
66674814 147 17754746253540105214
86090 222 17763445610756091938

> <PUBCHEM_SHAPE_MULTIPOLES>
1003.24
12.75
6.56
5.49
0.02
9.48
-0.03
2.16
0.01
0.03
0.05
-0.06
-3.76
-8.63

> <PUBCHEM_SHAPE_SELFOVERLAP>
2149.34

> <PUBCHEM_SHAPE_VOLUME>
559.8

> <PUBCHEM_COORDINATE_TYPE>
2
5
10

$$$$
